==========================================================================
Command line: 
..\..\bin\gsflow  .\control\acf.control

number of command line words: 2

Executable: ..\..\bin\gsflow

==========================================================================
Control File: .\control\acf.control
 WARNING, control parameter not used: stats_output_file, ignored
==========================================================================


                          U.S. Geological Survey
        Coupled Groundwater and Surface-water FLOW model (GSFLOW)
                         Version: 2.3.0 03/17/2023

    An integration of the Precipitation-Runoff Modeling System (PRMS)
    and the Modular Groundwater Model (MODFLOW-NWT and MODFLOW-2005)

Execution start date and time (yyyy/mm/dd hh:mm:ss) 2023/05/11  8:41:15


               Precipitation-Runoff Modeling System (PRMS)
                       Version 5.3.0 03/17/2023

        Process            Available Modules
--------------------------------------------------------------------
  Basin Definition: basin
    Cascading Flow: cascade
  Time Series Data: obs, water_use_read, dynamic_param_read
                    dynamic_soil_param_read
   Potet Solar Rad: soltab
  Temperature Dist: temp_1sta, temp_laps, temp_dist2, climate_hru,
                    temp_map
       Precip Dist: precip_1sta, precip_laps, precip_dist2,
                    climate_hru, precip_map
Temp & Precip Dist: xyz_dist, ide_dist
    Solar Rad Dist: ccsolrad, ddsolrad, climate_hru, cloud_cover
Transpiration Dist: transp_tindex, climate_hru, transp_frost
      Potential ET: potet_hamon, potet_jh, potet_pan, climate_hru,
                    potet_hs, potet_pt, potet_pm, potet_pm_sta
      Interception: intcp
Snow & Glacr Dynam: snowcomp, glacr_melt
    Surface Runoff: srunoff_smidx, srunoff_carea
         Soil Zone: soilzone, soilzone_ag
       Groundwater: gwflow
Streamflow Routing: strmflow, strmflow_in_out, muskingum,
                    muskingum_lake, muskingum_mann, segment_to_hru
Streamflow Charact: strmflow_character
Stream Temperature: stream_temp
    Output Summary: basin_sum, subbasin, map_results, prms_summary,
                    nhru_summary, nsub_summary, water_balance
                    basin_summary, nsegment_summary, statvar_out
     Preprocessing: write_climate_hru, frost_date
--------------------------------------------------------------------


==========================================================================
Please give careful consideration to fixing all ERROR and WARNING messages
==========================================================================


    Active modules listed in the order in which they are called

        Process                    Module         Version Date
==============================================================
PRMS Computation Order          gsflow_prms         2023-03-17
Read Control File               read_control_file   2022-10-20
Read Parameter File             read_parameter_file 2022-01-12
Read Data File                  read_data_file      2022-06-02
Basin Definition                basin               2023-01-11
Common States and Fluxes        climateflow         2023-03-16
Potential Solar Radiation       soltab              2022-10-24
Time Series Data                obs                 2022-09-07
Timestep Control                prms_time           2022-04-21
Temperature Distribution        climate_hru         2023-03-16
Precipitation Distribution      climate_hru         2023-03-16
Solar Radiation Distribution    climate_hru         2023-03-16
Potential Evapotranspiration    climate_hru         2023-03-16
Transpiration Distribution      transp_tindex       2021-09-07
Canopy Interception             intcp               2022-10-26
Snow Dynamics                   snowcomp            2023-03-16
Surface Runoff                  srunoff_smidx       2023-02-23
Soilzone Computations           soilzone            2023-02-23
Groundwater                     gwflow              2022-04-21
Streamflow Routing Init         routing             2022-09-07
Streamflow Routing              muskingum           2021-11-19
Output Summary                  basin_sum           2022-09-01
Output Summary                  nhru_summary        2022-09-07
Output Summary                  basin_summary       2021-11-19
Statistics Variables Output     statvar_out         2021-09-08
Output Summary                  prms_summary        2023-01-26
==============================================================

Using Control File: .\control\acf.control


Using Parameter File: .\input\acf.params


Writing var_save_file: .\output\save_vars.acf


Writing PRMS Water Budget File: .\output\acf.out

WARNING, HRU: 29 soil_rechr_init > soil_moist_init,   1.00000   1.00000
         soil_rechr set to soil_moist based on init and max values
WARNING, HRU: 34 soil_rechr_init > soil_moist_init,   1.00000   1.00000
         soil_rechr set to soil_moist based on init and max values
 WARNING, pref_flow_infil_frac not specified, substituting pref_flow_den
  
 WARNING, parameter: pref_flow_infil_frac is not specified
          Set to default value:  -1.000000    

Simulation time period: 1988/10/01 - 1990/09/30

==========================================================================


                          ===========================
                          Normal completion of GSFLOW
                          ===========================

Execution start date and time (yyyy/mm/dd hh:mm:ss) 2023/05/11  8:41:15

Execution end   date and time (yyyy/mm/dd hh:mm:ss) 2023/05/11  8:41:16

Execution elapsed time    0 minutes  0.61 seconds

