1
 SUMMARY VOLUMETRIC BUDGET FOR GSFLOW 
 DATE: 10 01 1980              CUMULATIVE TIME STEP:       1
 MODFLOW STRESS PERIOD      2     CURRENT TIME STEP:       1     ITERATIONS:      12

 -----------------------------------------------------------------------------------

   CUMULATIVE VOLUMES               L**3   RATES FOR THIS TIME STEP           L**3/T
   ------------------                      ------------------------

                                     IN                                         IN
                                     --                                         --
        PRECIPITATION =                            PRECIPITATION =                  
           STREAMFLOW =                               STREAMFLOW =                  
     GW BOUNDARY FLOW =                         GW BOUNDARY FLOW =                  
                WELLS =              0.37                  WELLS =              0.37


                                    OUT                                        OUT
                                    ---                                        ---
   EVAPOTRANSPIRATION =           7483.28     EVAPOTRANSPIRATION =           7483.28
           STREAMFLOW =           6143.24             STREAMFLOW =           6143.24
     GW BOUNDARY FLOW =            724.05       GW BOUNDARY FLOW =            724.05
                WELLS =           2621.53                  WELLS =           2621.53

   INFLOWS - OUTFLOWS =         -16971.73     INFLOWS - OUTFLOWS =         -16971.73
             --------                                   --------

 TOTAL STORAGE CHANGE =         -16939.16         STORAGE CHANGE =         -16939.16
       --------------                             --------------
         LAND SURFACE =                             LAND SURFACE =                  
            SOIL ZONE =           8379.39              SOIL ZONE =           8379.39
     UNSATURATED ZONE =         -20923.51       UNSATURATED ZONE =         -20923.51
       SATURATED ZONE =          -4395.03         SATURATED ZONE =          -4395.03

 OVERALL BUDGET ERROR =            -32.57           BUDGET ERROR =            -32.57


  PERCENT DISCREPANCY =             -0.19    PERCENT DISCREPANCY =             -0.19



1
 SUMMARY VOLUMETRIC BUDGET FOR GSFLOW 
 DATE: 10 02 1980              CUMULATIVE TIME STEP:       2
 MODFLOW STRESS PERIOD      2     CURRENT TIME STEP:       2     ITERATIONS:       7

 -----------------------------------------------------------------------------------

   CUMULATIVE VOLUMES               L**3   RATES FOR THIS TIME STEP           L**3/T
   ------------------                      ------------------------

                                     IN                                         IN
                                     --                                         --
        PRECIPITATION =                            PRECIPITATION =                  
           STREAMFLOW =                               STREAMFLOW =                  
     GW BOUNDARY FLOW =                         GW BOUNDARY FLOW =                  
                WELLS =              0.73                  WELLS =              0.37


                                    OUT                                        OUT
                                    ---                                        ---
   EVAPOTRANSPIRATION =          15991.93     EVAPOTRANSPIRATION =           8508.65
           STREAMFLOW =          12102.55             STREAMFLOW =           5959.31
     GW BOUNDARY FLOW =           1448.05       GW BOUNDARY FLOW =            724.01
                WELLS =           5107.45                  WELLS =           2485.92

   INFLOWS - OUTFLOWS =         -34649.24     INFLOWS - OUTFLOWS =         -17677.52
             --------                                   --------

 TOTAL STORAGE CHANGE =         -34584.25         STORAGE CHANGE =         -17645.09
       --------------                             --------------
         LAND SURFACE =                             LAND SURFACE =                  
            SOIL ZONE =          15661.16              SOIL ZONE =           7281.77
     UNSATURATED ZONE =         -41733.55       UNSATURATED ZONE =         -20810.03
       SATURATED ZONE =          -8511.87         SATURATED ZONE =          -4116.83

 OVERALL BUDGET ERROR =            -64.99           BUDGET ERROR =            -32.42


  PERCENT DISCREPANCY =             -0.19    PERCENT DISCREPANCY =             -0.18



1
 SUMMARY VOLUMETRIC BUDGET FOR GSFLOW 
 DATE: 10 03 1980              CUMULATIVE TIME STEP:       3
 MODFLOW STRESS PERIOD      2     CURRENT TIME STEP:       3     ITERATIONS:       7

 -----------------------------------------------------------------------------------

   CUMULATIVE VOLUMES               L**3   RATES FOR THIS TIME STEP           L**3/T
   ------------------                      ------------------------

                                     IN                                         IN
                                     --                                         --
        PRECIPITATION =                            PRECIPITATION =                  
           STREAMFLOW =                               STREAMFLOW =                  
     GW BOUNDARY FLOW =                         GW BOUNDARY FLOW =                  
                WELLS =              1.11                  WELLS =              0.37


                                    OUT                                        OUT
                                    ---                                        ---
   EVAPOTRANSPIRATION =          24719.01     EVAPOTRANSPIRATION =           8727.08
           STREAMFLOW =          17955.38             STREAMFLOW =           5852.83
     GW BOUNDARY FLOW =           2172.03       GW BOUNDARY FLOW =            723.97
                WELLS =           7542.64                  WELLS =           2435.19

   INFLOWS - OUTFLOWS =         -52387.95     INFLOWS - OUTFLOWS =         -17738.70
             --------                                   --------

 TOTAL STORAGE CHANGE =         -52290.72         STORAGE CHANGE =         -17706.47
       --------------                             --------------
         LAND SURFACE =                             LAND SURFACE =                  
            SOIL ZONE =          22675.61              SOIL ZONE =           7014.45
     UNSATURATED ZONE =         -62448.72       UNSATURATED ZONE =         -20715.17
       SATURATED ZONE =         -12517.61         SATURATED ZONE =          -4005.75

 OVERALL BUDGET ERROR =            -97.23           BUDGET ERROR =            -32.23


  PERCENT DISCREPANCY =             -0.19    PERCENT DISCREPANCY =             -0.18



1
 SUMMARY VOLUMETRIC BUDGET FOR GSFLOW 
 DATE: 10 04 1980              CUMULATIVE TIME STEP:       4
 MODFLOW STRESS PERIOD      2     CURRENT TIME STEP:       4     ITERATIONS:       8

 -----------------------------------------------------------------------------------

   CUMULATIVE VOLUMES               L**3   RATES FOR THIS TIME STEP           L**3/T
   ------------------                      ------------------------

                                     IN                                         IN
                                     --                                         --
        PRECIPITATION =                            PRECIPITATION =                  
           STREAMFLOW =                               STREAMFLOW =                  
     GW BOUNDARY FLOW =                         GW BOUNDARY FLOW =                  
                WELLS =              1.48                  WELLS =              0.37


                                    OUT                                        OUT
                                    ---                                        ---
   EVAPOTRANSPIRATION =          33988.00     EVAPOTRANSPIRATION =           9269.00
           STREAMFLOW =          23743.34             STREAMFLOW =           5787.96
     GW BOUNDARY FLOW =           2895.97       GW BOUNDARY FLOW =            723.94
                WELLS =           9940.24                  WELLS =           2397.60

   INFLOWS - OUTFLOWS =         -70566.08     INFLOWS - OUTFLOWS =         -18178.13
             --------                                   --------

 TOTAL STORAGE CHANGE =         -70436.89         STORAGE CHANGE =         -18146.18
       --------------                             --------------
         LAND SURFACE =                             LAND SURFACE =                  
            SOIL ZONE =          29107.80              SOIL ZONE =           6432.19
     UNSATURATED ZONE =         -83055.10       UNSATURATED ZONE =         -20606.38
       SATURATED ZONE =         -16489.60         SATURATED ZONE =          -3971.99

 OVERALL BUDGET ERROR =           -129.18           BUDGET ERROR =            -31.96


  PERCENT DISCREPANCY =             -0.18    PERCENT DISCREPANCY =             -0.18



1
 SUMMARY VOLUMETRIC BUDGET FOR GSFLOW 
 DATE: 10 05 1980              CUMULATIVE TIME STEP:       5
 MODFLOW STRESS PERIOD      2     CURRENT TIME STEP:       5     ITERATIONS:       8

 -----------------------------------------------------------------------------------

   CUMULATIVE VOLUMES               L**3   RATES FOR THIS TIME STEP           L**3/T
   ------------------                      ------------------------

                                     IN                                         IN
                                     --                                         --
        PRECIPITATION =                            PRECIPITATION =                  
           STREAMFLOW =                               STREAMFLOW =                  
     GW BOUNDARY FLOW =                         GW BOUNDARY FLOW =                  
                WELLS =              1.85                  WELLS =              0.37


                                    OUT                                        OUT
                                    ---                                        ---
   EVAPOTRANSPIRATION =          45282.52     EVAPOTRANSPIRATION =          11294.51
           STREAMFLOW =          29488.21             STREAMFLOW =           5744.87
     GW BOUNDARY FLOW =           3619.87       GW BOUNDARY FLOW =            723.90
                WELLS =          12304.29                  WELLS =           2364.05

   INFLOWS - OUTFLOWS =         -90693.04     INFLOWS - OUTFLOWS =         -20126.96
             --------                                   --------

 TOTAL STORAGE CHANGE =         -90532.21         STORAGE CHANGE =         -20095.32
       --------------                             --------------
         LAND SURFACE =                             LAND SURFACE =                  
            SOIL ZONE =          33478.96              SOIL ZONE =           4371.16
     UNSATURATED ZONE =        -103548.08       UNSATURATED ZONE =         -20492.98
       SATURATED ZONE =         -20463.10         SATURATED ZONE =          -3973.50

 OVERALL BUDGET ERROR =           -160.82           BUDGET ERROR =            -31.64


  PERCENT DISCREPANCY =             -0.18    PERCENT DISCREPANCY =             -0.16



1
 SUMMARY VOLUMETRIC BUDGET FOR GSFLOW 
 DATE: 10 06 1980              CUMULATIVE TIME STEP:       6
 MODFLOW STRESS PERIOD      2     CURRENT TIME STEP:       6     ITERATIONS:      10

 -----------------------------------------------------------------------------------

   CUMULATIVE VOLUMES               L**3   RATES FOR THIS TIME STEP           L**3/T
   ------------------                      ------------------------

                                     IN                                         IN
                                     --                                         --
        PRECIPITATION =                            PRECIPITATION =                  
           STREAMFLOW =                               STREAMFLOW =                  
     GW BOUNDARY FLOW =                         GW BOUNDARY FLOW =                  
                WELLS =              2.23                  WELLS =              0.38


                                    OUT                                        OUT
                                    ---                                        ---
   EVAPOTRANSPIRATION =          56889.22     EVAPOTRANSPIRATION =          11606.71
           STREAMFLOW =          35201.71             STREAMFLOW =           5713.50
     GW BOUNDARY FLOW =           4343.73       GW BOUNDARY FLOW =            723.85
                WELLS =          14637.15                  WELLS =           2332.86

   INFLOWS - OUTFLOWS =        -111069.58     INFLOWS - OUTFLOWS =         -20376.54
             --------                                   --------

 TOTAL STORAGE CHANGE =        -110877.33         STORAGE CHANGE =         -20345.11
       --------------                             --------------
         LAND SURFACE =                             LAND SURFACE =                  
            SOIL ZONE =          37505.63              SOIL ZONE =           4026.67
     UNSATURATED ZONE =        -123920.73       UNSATURATED ZONE =         -20372.66
       SATURATED ZONE =         -24462.22         SATURATED ZONE =          -3999.13

 OVERALL BUDGET ERROR =           -192.25           BUDGET ERROR =            -31.43


  PERCENT DISCREPANCY =             -0.17    PERCENT DISCREPANCY =             -0.15



1
 SUMMARY VOLUMETRIC BUDGET FOR GSFLOW 
 DATE: 10 07 1980              CUMULATIVE TIME STEP:       7
 MODFLOW STRESS PERIOD      2     CURRENT TIME STEP:       7     ITERATIONS:      10

 -----------------------------------------------------------------------------------

   CUMULATIVE VOLUMES               L**3   RATES FOR THIS TIME STEP           L**3/T
   ------------------                      ------------------------

                                     IN                                         IN
                                     --                                         --
        PRECIPITATION =                            PRECIPITATION =                  
           STREAMFLOW =                               STREAMFLOW =                  
     GW BOUNDARY FLOW =                         GW BOUNDARY FLOW =                  
                WELLS =              2.61                  WELLS =              0.38


                                    OUT                                        OUT
                                    ---                                        ---
   EVAPOTRANSPIRATION =          66255.19     EVAPOTRANSPIRATION =           9365.96
           STREAMFLOW =          40890.25             STREAMFLOW =           5688.54
     GW BOUNDARY FLOW =           5067.54       GW BOUNDARY FLOW =            723.82
                WELLS =          16940.66                  WELLS =           2303.51

   INFLOWS - OUTFLOWS =        -129151.03     INFLOWS - OUTFLOWS =         -18081.45
             --------                                   --------

 TOTAL STORAGE CHANGE =        -128927.62         STORAGE CHANGE =         -18050.29
       --------------                             --------------
         LAND SURFACE =                             LAND SURFACE =                  
            SOIL ZONE =          43743.66              SOIL ZONE =           6238.03
     UNSATURATED ZONE =        -144187.06       UNSATURATED ZONE =         -20266.32
       SATURATED ZONE =         -28484.22         SATURATED ZONE =          -4022.00

 OVERALL BUDGET ERROR =           -223.41           BUDGET ERROR =            -31.16


  PERCENT DISCREPANCY =             -0.17    PERCENT DISCREPANCY =             -0.17



1
 SUMMARY VOLUMETRIC BUDGET FOR GSFLOW 
 DATE: 10 08 1980              CUMULATIVE TIME STEP:       8
 MODFLOW STRESS PERIOD      2     CURRENT TIME STEP:       8     ITERATIONS:      10

 -----------------------------------------------------------------------------------

   CUMULATIVE VOLUMES               L**3   RATES FOR THIS TIME STEP           L**3/T
   ------------------                      ------------------------

                                     IN                                         IN
                                     --                                         --
        PRECIPITATION =                            PRECIPITATION =                  
           STREAMFLOW =                               STREAMFLOW =                  
     GW BOUNDARY FLOW =                         GW BOUNDARY FLOW =                  
                WELLS =              2.98                  WELLS =              0.38


                                    OUT                                        OUT
                                    ---                                        ---
   EVAPOTRANSPIRATION =          76222.34     EVAPOTRANSPIRATION =           9967.15
           STREAMFLOW =          46556.64             STREAMFLOW =           5666.39
     GW BOUNDARY FLOW =           5791.32       GW BOUNDARY FLOW =            723.78
                WELLS =          19216.44                  WELLS =           2275.78

   INFLOWS - OUTFLOWS =        -147783.76     INFLOWS - OUTFLOWS =         -18632.73
             --------                                   --------

 TOTAL STORAGE CHANGE =        -147529.43         STORAGE CHANGE =         -18601.81
       --------------                             --------------
         LAND SURFACE =                             LAND SURFACE =                  
            SOIL ZONE =          49352.91              SOIL ZONE =           5609.25
     UNSATURATED ZONE =        -164338.43       UNSATURATED ZONE =         -20151.37
       SATURATED ZONE =         -32543.92         SATURATED ZONE =          -4059.69

 OVERALL BUDGET ERROR =           -254.33           BUDGET ERROR =            -30.92


  PERCENT DISCREPANCY =             -0.17    PERCENT DISCREPANCY =             -0.17



1
 SUMMARY VOLUMETRIC BUDGET FOR GSFLOW 
 DATE: 10 09 1980              CUMULATIVE TIME STEP:       9
 MODFLOW STRESS PERIOD      2     CURRENT TIME STEP:       9     ITERATIONS:      10

 -----------------------------------------------------------------------------------

   CUMULATIVE VOLUMES               L**3   RATES FOR THIS TIME STEP           L**3/T
   ------------------                      ------------------------

                                     IN                                         IN
                                     --                                         --
        PRECIPITATION =                            PRECIPITATION =                  
           STREAMFLOW =                               STREAMFLOW =                  
     GW BOUNDARY FLOW =                         GW BOUNDARY FLOW =                  
                WELLS =              3.36                  WELLS =              0.38


                                    OUT                                        OUT
                                    ---                                        ---
   EVAPOTRANSPIRATION =          85556.95     EVAPOTRANSPIRATION =           9334.61
           STREAMFLOW =          52201.92             STREAMFLOW =           5645.28
     GW BOUNDARY FLOW =           6515.08       GW BOUNDARY FLOW =            723.76
                WELLS =          21465.93                  WELLS =           2249.50

   INFLOWS - OUTFLOWS =        -165736.53     INFLOWS - OUTFLOWS =         -17952.77
             --------                                   --------

 TOTAL STORAGE CHANGE =        -165451.48         STORAGE CHANGE =         -17922.05
       --------------                             --------------
         LAND SURFACE =                             LAND SURFACE =                  
            SOIL ZONE =          55568.32              SOIL ZONE =           6215.41
     UNSATURATED ZONE =        -184380.07       UNSATURATED ZONE =         -20041.64
       SATURATED ZONE =         -36639.73         SATURATED ZONE =          -4095.82

 OVERALL BUDGET ERROR =           -285.05           BUDGET ERROR =            -30.72


  PERCENT DISCREPANCY =             -0.17    PERCENT DISCREPANCY =             -0.17



1
 SUMMARY VOLUMETRIC BUDGET FOR GSFLOW 
 DATE: 10 10 1980              CUMULATIVE TIME STEP:      10
 MODFLOW STRESS PERIOD      2     CURRENT TIME STEP:      10     ITERATIONS:      10

 -----------------------------------------------------------------------------------

   CUMULATIVE VOLUMES               L**3   RATES FOR THIS TIME STEP           L**3/T
   ------------------                      ------------------------

                                     IN                                         IN
                                     --                                         --
        PRECIPITATION =                            PRECIPITATION =                  
           STREAMFLOW =                               STREAMFLOW =                  
     GW BOUNDARY FLOW =                         GW BOUNDARY FLOW =                  
                WELLS =              3.74                  WELLS =              0.38


                                    OUT                                        OUT
                                    ---                                        ---
   EVAPOTRANSPIRATION =          95160.03     EVAPOTRANSPIRATION =           9603.08
           STREAMFLOW =          57825.31             STREAMFLOW =           5623.39
     GW BOUNDARY FLOW =           7238.82       GW BOUNDARY FLOW =            723.73
                WELLS =          23690.49                  WELLS =           2224.55

   INFLOWS - OUTFLOWS =        -183910.90     INFLOWS - OUTFLOWS =         -18174.37
             --------                                   --------

 TOTAL STORAGE CHANGE =        -183595.43         STORAGE CHANGE =         -18143.95
       --------------                             --------------
         LAND SURFACE =                             LAND SURFACE =                  
            SOIL ZONE =          61489.81              SOIL ZONE =           5921.49
     UNSATURATED ZONE =        -204310.79       UNSATURATED ZONE =         -19930.73
       SATURATED ZONE =         -40774.44         SATURATED ZONE =          -4134.71

 OVERALL BUDGET ERROR =           -315.47           BUDGET ERROR =            -30.42


  PERCENT DISCREPANCY =             -0.17    PERCENT DISCREPANCY =             -0.17



1
 SUMMARY VOLUMETRIC BUDGET FOR GSFLOW 
 DATE: 10 11 1980              CUMULATIVE TIME STEP:      11
 MODFLOW STRESS PERIOD      2     CURRENT TIME STEP:      11     ITERATIONS:      10

 -----------------------------------------------------------------------------------

   CUMULATIVE VOLUMES               L**3   RATES FOR THIS TIME STEP           L**3/T
   ------------------                      ------------------------

                                     IN                                         IN
                                     --                                         --
        PRECIPITATION =                            PRECIPITATION =                  
           STREAMFLOW =                               STREAMFLOW =                  
     GW BOUNDARY FLOW =                         GW BOUNDARY FLOW =                  
                WELLS =              4.11                  WELLS =              0.38


                                    OUT                                        OUT
                                    ---                                        ---
   EVAPOTRANSPIRATION =         103860.77     EVAPOTRANSPIRATION =           8700.74
           STREAMFLOW =          63424.78             STREAMFLOW =           5599.47
     GW BOUNDARY FLOW =           7962.53       GW BOUNDARY FLOW =            723.71
                WELLS =          25891.34                  WELLS =           2200.85

   INFLOWS - OUTFLOWS =        -201135.30     INFLOWS - OUTFLOWS =         -17224.40
             --------                                   --------

 TOTAL STORAGE CHANGE =        -200789.76         STORAGE CHANGE =         -17194.33
       --------------                             --------------
         LAND SURFACE =                             LAND SURFACE =                  
            SOIL ZONE =          68288.79              SOIL ZONE =           6798.98
     UNSATURATED ZONE =        -224135.21       UNSATURATED ZONE =         -19824.41
       SATURATED ZONE =         -44943.34         SATURATED ZONE =          -4168.90

 OVERALL BUDGET ERROR =           -345.54           BUDGET ERROR =            -30.06


  PERCENT DISCREPANCY =             -0.17    PERCENT DISCREPANCY =             -0.17



1
 SUMMARY VOLUMETRIC BUDGET FOR GSFLOW 
 DATE: 10 12 1980              CUMULATIVE TIME STEP:      12
 MODFLOW STRESS PERIOD      2     CURRENT TIME STEP:      12     ITERATIONS:      10

 -----------------------------------------------------------------------------------

   CUMULATIVE VOLUMES               L**3   RATES FOR THIS TIME STEP           L**3/T
   ------------------                      ------------------------

                                     IN                                         IN
                                     --                                         --
        PRECIPITATION =         229249.05          PRECIPITATION =         229249.05
           STREAMFLOW =                               STREAMFLOW =                  
     GW BOUNDARY FLOW =                         GW BOUNDARY FLOW =                  
                WELLS =              4.49                  WELLS =              0.38


                                    OUT                                        OUT
                                    ---                                        ---
   EVAPOTRANSPIRATION =         110089.16     EVAPOTRANSPIRATION =           6228.39
           STREAMFLOW =          71162.60             STREAMFLOW =           7737.82
     GW BOUNDARY FLOW =           8686.42       GW BOUNDARY FLOW =            723.89
                WELLS =          28069.65                  WELLS =           2178.31

   INFLOWS - OUTFLOWS =          11245.72     INFLOWS - OUTFLOWS =         212381.01
             --------                                   --------

 TOTAL STORAGE CHANGE =          11621.23         STORAGE CHANGE =         212410.99
       --------------                             --------------
         LAND SURFACE =          74128.68           LAND SURFACE =          74128.68
            SOIL ZONE =         230077.83              SOIL ZONE =         161789.04
     UNSATURATED ZONE =        -243893.43       UNSATURATED ZONE =         -19758.22
       SATURATED ZONE =         -48691.85         SATURATED ZONE =          -3748.51

 OVERALL BUDGET ERROR =           -375.51           BUDGET ERROR =            -29.98


  PERCENT DISCREPANCY =             -0.16    PERCENT DISCREPANCY =             -0.01



1
 SUMMARY VOLUMETRIC BUDGET FOR GSFLOW 
 DATE: 10 13 1980              CUMULATIVE TIME STEP:      13
 MODFLOW STRESS PERIOD      2     CURRENT TIME STEP:      13     ITERATIONS:      10

 -----------------------------------------------------------------------------------

   CUMULATIVE VOLUMES               L**3   RATES FOR THIS TIME STEP           L**3/T
   ------------------                      ------------------------

                                     IN                                         IN
                                     --                                         --
        PRECIPITATION =         229249.05          PRECIPITATION =                  
           STREAMFLOW =                               STREAMFLOW =                  
     GW BOUNDARY FLOW =                         GW BOUNDARY FLOW =                  
                WELLS =              4.87                  WELLS =              0.38


                                    OUT                                        OUT
                                    ---                                        ---
   EVAPOTRANSPIRATION =         137884.71     EVAPOTRANSPIRATION =          27795.55
           STREAMFLOW =          77343.77             STREAMFLOW =           6181.18
     GW BOUNDARY FLOW =           9410.28       GW BOUNDARY FLOW =            723.85
                WELLS =          30226.48                  WELLS =           2156.83

   INFLOWS - OUTFLOWS =         -25611.32     INFLOWS - OUTFLOWS =         -36857.03
             --------                                   --------

 TOTAL STORAGE CHANGE =         -25206.10         STORAGE CHANGE =         -36827.34
       --------------                             --------------
         LAND SURFACE =          44110.59           LAND SURFACE =         -30018.08
            SOIL ZONE =         247067.39              SOIL ZONE =          16989.56
     UNSATURATED ZONE =        -263468.88       UNSATURATED ZONE =         -19575.45
       SATURATED ZONE =         -52915.21         SATURATED ZONE =          -4223.36

 OVERALL BUDGET ERROR =           -405.21           BUDGET ERROR =            -29.70


  PERCENT DISCREPANCY =             -0.16    PERCENT DISCREPANCY =             -0.08



1
 SUMMARY VOLUMETRIC BUDGET FOR GSFLOW 
 DATE: 10 14 1980              CUMULATIVE TIME STEP:      14
 MODFLOW STRESS PERIOD      2     CURRENT TIME STEP:      14     ITERATIONS:      11

 -----------------------------------------------------------------------------------

   CUMULATIVE VOLUMES               L**3   RATES FOR THIS TIME STEP           L**3/T
   ------------------                      ------------------------

                                     IN                                         IN
                                     --                                         --
        PRECIPITATION =         403289.47          PRECIPITATION =         174040.42
           STREAMFLOW =                               STREAMFLOW =                  
     GW BOUNDARY FLOW =                         GW BOUNDARY FLOW =                  
                WELLS =              5.25                  WELLS =              0.38


                                    OUT                                        OUT
                                    ---                                        ---
   EVAPOTRANSPIRATION =         143347.21     EVAPOTRANSPIRATION =           5462.50
           STREAMFLOW =          84320.29             STREAMFLOW =           6976.52
     GW BOUNDARY FLOW =          10134.18       GW BOUNDARY FLOW =            723.90
                WELLS =          32362.84                  WELLS =           2136.36

   INFLOWS - OUTFLOWS =         133130.20     INFLOWS - OUTFLOWS =         158741.51
             --------                                   --------

 TOTAL STORAGE CHANGE =         133573.19         STORAGE CHANGE =         158779.29
       --------------                             --------------
         LAND SURFACE =         150822.63           LAND SURFACE =         106712.04
            SOIL ZONE =         322724.23              SOIL ZONE =          75656.84
     UNSATURATED ZONE =        -282947.18       UNSATURATED ZONE =         -19478.30
       SATURATED ZONE =         -57026.49         SATURATED ZONE =          -4111.28

 OVERALL BUDGET ERROR =           -442.99           BUDGET ERROR =            -37.78


  PERCENT DISCREPANCY =             -0.11    PERCENT DISCREPANCY =             -0.02



1
 SUMMARY VOLUMETRIC BUDGET FOR GSFLOW 
 DATE: 10 15 1980              CUMULATIVE TIME STEP:      15
 MODFLOW STRESS PERIOD      2     CURRENT TIME STEP:      15     ITERATIONS:      11

 -----------------------------------------------------------------------------------

   CUMULATIVE VOLUMES               L**3   RATES FOR THIS TIME STEP           L**3/T
   ------------------                      ------------------------

                                     IN                                         IN
                                     --                                         --
        PRECIPITATION =         533754.90          PRECIPITATION =         130465.44
           STREAMFLOW =                               STREAMFLOW =                  
     GW BOUNDARY FLOW =                         GW BOUNDARY FLOW =                  
                WELLS =              5.63                  WELLS =              0.38


                                    OUT                                        OUT
                                    ---                                        ---
   EVAPOTRANSPIRATION =         147857.91     EVAPOTRANSPIRATION =           4510.70
           STREAMFLOW =          90508.06             STREAMFLOW =           6187.77
     GW BOUNDARY FLOW =          10858.03       GW BOUNDARY FLOW =            723.86
                WELLS =          34479.67                  WELLS =           2116.83

   INFLOWS - OUTFLOWS =         250056.86     INFLOWS - OUTFLOWS =         116926.67
             --------                                   --------

 TOTAL STORAGE CHANGE =         250529.20         STORAGE CHANGE =         116956.01
       --------------                             --------------
         LAND SURFACE =         274823.75           LAND SURFACE =         124001.11
            SOIL ZONE =         339349.30              SOIL ZONE =          16625.07
     UNSATURATED ZONE =        -302293.07       UNSATURATED ZONE =         -19345.88
       SATURATED ZONE =         -61350.78         SATURATED ZONE =          -4324.29

 OVERALL BUDGET ERROR =           -472.34           BUDGET ERROR =            -29.35


  PERCENT DISCREPANCY =             -0.09    PERCENT DISCREPANCY =             -0.02



1
 SUMMARY VOLUMETRIC BUDGET FOR GSFLOW 
 DATE: 10 16 1980              CUMULATIVE TIME STEP:      16
 MODFLOW STRESS PERIOD      2     CURRENT TIME STEP:      16     ITERATIONS:      11

 -----------------------------------------------------------------------------------

   CUMULATIVE VOLUMES               L**3   RATES FOR THIS TIME STEP           L**3/T
   ------------------                      ------------------------

                                     IN                                         IN
                                     --                                         --
        PRECIPITATION =         704278.11          PRECIPITATION =         170523.21
           STREAMFLOW =                               STREAMFLOW =                  
     GW BOUNDARY FLOW =                         GW BOUNDARY FLOW =                  
                WELLS =              6.01                  WELLS =              0.38


                                    OUT                                        OUT
                                    ---                                        ---
   EVAPOTRANSPIRATION =         152554.19     EVAPOTRANSPIRATION =           4696.28
           STREAMFLOW =          96558.44             STREAMFLOW =           6050.39
     GW BOUNDARY FLOW =          11581.84       GW BOUNDARY FLOW =            723.81
                WELLS =          36577.84                  WELLS =           2098.17

   INFLOWS - OUTFLOWS =         407011.80     INFLOWS - OUTFLOWS =         156954.94
             --------                                   --------

 TOTAL STORAGE CHANGE =         407513.19         STORAGE CHANGE =         156983.99
       --------------                             --------------
         LAND SURFACE =         437233.27           LAND SURFACE =         162409.52
            SOIL ZONE =         357548.07              SOIL ZONE =          18198.77
     UNSATURATED ZONE =        -321522.41       UNSATURATED ZONE =         -19229.34
       SATURATED ZONE =         -65745.74         SATURATED ZONE =          -4394.97

 OVERALL BUDGET ERROR =           -501.38           BUDGET ERROR =            -29.04


  PERCENT DISCREPANCY =             -0.07    PERCENT DISCREPANCY =             -0.02



1
 SUMMARY VOLUMETRIC BUDGET FOR GSFLOW 
 DATE: 10 17 1980              CUMULATIVE TIME STEP:      17
 MODFLOW STRESS PERIOD      2     CURRENT TIME STEP:      17     ITERATIONS:      11

 -----------------------------------------------------------------------------------

   CUMULATIVE VOLUMES               L**3   RATES FOR THIS TIME STEP           L**3/T
   ------------------                      ------------------------

                                     IN                                         IN
                                     --                                         --
        PRECIPITATION =         704278.11          PRECIPITATION =                  
           STREAMFLOW =                               STREAMFLOW =                  
     GW BOUNDARY FLOW =                         GW BOUNDARY FLOW =                  
                WELLS =              6.38                  WELLS =              0.38


                                    OUT                                        OUT
                                    ---                                        ---
   EVAPOTRANSPIRATION =         177452.08     EVAPOTRANSPIRATION =          24897.89
           STREAMFLOW =         103404.40             STREAMFLOW =           6845.96
     GW BOUNDARY FLOW =          12305.69       GW BOUNDARY FLOW =            723.84
                WELLS =          38658.18                  WELLS =           2080.34

   INFLOWS - OUTFLOWS =         372464.15     INFLOWS - OUTFLOWS =         -34547.65
             --------                                   --------

 TOTAL STORAGE CHANGE =         372994.42         STORAGE CHANGE =         -34518.77
       --------------                             --------------
         LAND SURFACE =         343820.49           LAND SURFACE =         -93412.78
            SOIL ZONE =         439853.31              SOIL ZONE =          82305.24
     UNSATURATED ZONE =        -340652.14       UNSATURATED ZONE =         -19129.74
       SATURATED ZONE =         -70027.24         SATURATED ZONE =          -4281.49

 OVERALL BUDGET ERROR =           -530.26           BUDGET ERROR =            -28.88


  PERCENT DISCREPANCY =             -0.08    PERCENT DISCREPANCY =             -0.08



1
 SUMMARY VOLUMETRIC BUDGET FOR GSFLOW 
 DATE: 10 18 1980              CUMULATIVE TIME STEP:      18
 MODFLOW STRESS PERIOD      2     CURRENT TIME STEP:      18     ITERATIONS:      11

 -----------------------------------------------------------------------------------

   CUMULATIVE VOLUMES               L**3   RATES FOR THIS TIME STEP           L**3/T
   ------------------                      ------------------------

                                     IN                                         IN
                                     --                                         --
        PRECIPITATION =         704278.11          PRECIPITATION =                  
           STREAMFLOW =                               STREAMFLOW =                  
     GW BOUNDARY FLOW =                         GW BOUNDARY FLOW =                  
                WELLS =              6.76                  WELLS =              0.38


                                    OUT                                        OUT
                                    ---                                        ---
   EVAPOTRANSPIRATION =         213256.61     EVAPOTRANSPIRATION =          35804.54
           STREAMFLOW =         111546.75             STREAMFLOW =           8142.35
     GW BOUNDARY FLOW =          13029.64       GW BOUNDARY FLOW =            723.96
                WELLS =          40720.98                  WELLS =           2062.80

   INFLOWS - OUTFLOWS =         325730.88     INFLOWS - OUTFLOWS =         -46733.27
             --------                                   --------

 TOTAL STORAGE CHANGE =         326289.77         STORAGE CHANGE =         -46704.65
       --------------                             --------------
         LAND SURFACE =         168514.44           LAND SURFACE =        -175306.05
            SOIL ZONE =         591592.86              SOIL ZONE =         151739.55
     UNSATURATED ZONE =        -359719.92       UNSATURATED ZONE =         -19067.78
       SATURATED ZONE =         -74097.62         SATURATED ZONE =          -4070.38

 OVERALL BUDGET ERROR =           -558.89           BUDGET ERROR =            -28.63


  PERCENT DISCREPANCY =             -0.08    PERCENT DISCREPANCY =             -0.06



1
 SUMMARY VOLUMETRIC BUDGET FOR GSFLOW 
 DATE: 10 19 1980              CUMULATIVE TIME STEP:      19
 MODFLOW STRESS PERIOD      2     CURRENT TIME STEP:      19     ITERATIONS:      11

 -----------------------------------------------------------------------------------

   CUMULATIVE VOLUMES               L**3   RATES FOR THIS TIME STEP           L**3/T
   ------------------                      ------------------------

                                     IN                                         IN
                                     --                                         --
        PRECIPITATION =         704278.11          PRECIPITATION =                  
           STREAMFLOW =                               STREAMFLOW =                  
     GW BOUNDARY FLOW =                         GW BOUNDARY FLOW =                  
                WELLS =              7.14                  WELLS =              0.38


                                    OUT                                        OUT
                                    ---                                        ---
   EVAPOTRANSPIRATION =         267551.80     EVAPOTRANSPIRATION =          54295.19
           STREAMFLOW =         119642.80             STREAMFLOW =           8096.05
     GW BOUNDARY FLOW =          13753.65       GW BOUNDARY FLOW =            724.01
                WELLS =          42765.38                  WELLS =           2044.40

   INFLOWS - OUTFLOWS =         260571.62     INFLOWS - OUTFLOWS =         -65159.26
             --------                                   --------

 TOTAL STORAGE CHANGE =         261158.75         STORAGE CHANGE =         -65131.01
       --------------                             --------------
         LAND SURFACE =          42653.20           LAND SURFACE =        -125861.24
            SOIL ZONE =         675410.47              SOIL ZONE =          83817.61
     UNSATURATED ZONE =        -378676.48       UNSATURATED ZONE =         -18956.56
       SATURATED ZONE =         -78228.44         SATURATED ZONE =          -4130.83

 OVERALL BUDGET ERROR =           -587.14           BUDGET ERROR =            -28.25


  PERCENT DISCREPANCY =             -0.08    PERCENT DISCREPANCY =             -0.04



1
 SUMMARY VOLUMETRIC BUDGET FOR GSFLOW 
 DATE: 10 20 1980              CUMULATIVE TIME STEP:      20
 MODFLOW STRESS PERIOD      2     CURRENT TIME STEP:      20     ITERATIONS:      10

 -----------------------------------------------------------------------------------

   CUMULATIVE VOLUMES               L**3   RATES FOR THIS TIME STEP           L**3/T
   ------------------                      ------------------------

                                     IN                                         IN
                                     --                                         --
        PRECIPITATION =         704278.11          PRECIPITATION =                  
           STREAMFLOW =                               STREAMFLOW =                  
     GW BOUNDARY FLOW =                         GW BOUNDARY FLOW =                  
                WELLS =             67.24                  WELLS =             60.10


                                    OUT                                        OUT
                                    ---                                        ---
   EVAPOTRANSPIRATION =         324050.71     EVAPOTRANSPIRATION =          56498.91
           STREAMFLOW =         126930.07             STREAMFLOW =           7287.27
     GW BOUNDARY FLOW =          14477.62       GW BOUNDARY FLOW =            723.97
                WELLS =          43921.85                  WELLS =           1156.47

   INFLOWS - OUTFLOWS =         194965.10     INFLOWS - OUTFLOWS =         -65606.52
             --------                                   --------

 TOTAL STORAGE CHANGE =         195580.18         STORAGE CHANGE =         -65578.57
       --------------                             --------------
         LAND SURFACE =          12430.77           LAND SURFACE =         -30222.43
            SOIL ZONE =         662435.81              SOIL ZONE =         -12974.67
     UNSATURATED ZONE =        -397473.98       UNSATURATED ZONE =         -18797.50
       SATURATED ZONE =         -81812.42         SATURATED ZONE =          -3583.98

 OVERALL BUDGET ERROR =           -615.08           BUDGET ERROR =            -27.95


  PERCENT DISCREPANCY =             -0.09    PERCENT DISCREPANCY =             -0.04



1
 SUMMARY VOLUMETRIC BUDGET FOR GSFLOW 
 DATE: 10 21 1980              CUMULATIVE TIME STEP:      21
 MODFLOW STRESS PERIOD      2     CURRENT TIME STEP:      21     ITERATIONS:      11

 -----------------------------------------------------------------------------------

   CUMULATIVE VOLUMES               L**3   RATES FOR THIS TIME STEP           L**3/T
   ------------------                      ------------------------

                                     IN                                         IN
                                     --                                         --
        PRECIPITATION =         704278.11          PRECIPITATION =                  
           STREAMFLOW =                               STREAMFLOW =                  
     GW BOUNDARY FLOW =                         GW BOUNDARY FLOW =                  
                WELLS =             67.62                  WELLS =              0.38


                                    OUT                                        OUT
                                    ---                                        ---
   EVAPOTRANSPIRATION =         370203.51     EVAPOTRANSPIRATION =          46152.80
           STREAMFLOW =         133797.60             STREAMFLOW =           6867.53
     GW BOUNDARY FLOW =          15201.53       GW BOUNDARY FLOW =            723.90
                WELLS =          45987.89                  WELLS =           2066.04

   INFLOWS - OUTFLOWS =         139155.20     INFLOWS - OUTFLOWS =         -55809.89
             --------                                   --------

 TOTAL STORAGE CHANGE =         139797.91         STORAGE CHANGE =         -55782.27
       --------------                             --------------
         LAND SURFACE =           4707.66           LAND SURFACE =          -7723.11
            SOIL ZONE =         637748.66              SOIL ZONE =         -24687.15
     UNSATURATED ZONE =        -416137.49       UNSATURATED ZONE =         -18663.51
       SATURATED ZONE =         -86520.92         SATURATED ZONE =          -4708.50

 OVERALL BUDGET ERROR =           -642.71           BUDGET ERROR =            -27.63


  PERCENT DISCREPANCY =             -0.09    PERCENT DISCREPANCY =             -0.05



1
 SUMMARY VOLUMETRIC BUDGET FOR GSFLOW 
 DATE: 10 22 1980              CUMULATIVE TIME STEP:      22
 MODFLOW STRESS PERIOD      2     CURRENT TIME STEP:      22     ITERATIONS:      11

 -----------------------------------------------------------------------------------

   CUMULATIVE VOLUMES               L**3   RATES FOR THIS TIME STEP           L**3/T
   ------------------                      ------------------------

                                     IN                                         IN
                                     --                                         --
        PRECIPITATION =         704278.11          PRECIPITATION =                  
           STREAMFLOW =                               STREAMFLOW =                  
     GW BOUNDARY FLOW =                         GW BOUNDARY FLOW =                  
                WELLS =             68.00                  WELLS =              0.38


                                    OUT                                        OUT
                                    ---                                        ---
   EVAPOTRANSPIRATION =         412728.72     EVAPOTRANSPIRATION =          42525.21
           STREAMFLOW =         140455.98             STREAMFLOW =           6658.38
     GW BOUNDARY FLOW =          15925.37       GW BOUNDARY FLOW =            723.85
                WELLS =          47998.50                  WELLS =           2010.62

   INFLOWS - OUTFLOWS =          87237.53     INFLOWS - OUTFLOWS =         -51917.67
             --------                                   --------

 TOTAL STORAGE CHANGE =          87907.54         STORAGE CHANGE =         -51890.37
       --------------                             --------------
         LAND SURFACE =           1213.72           LAND SURFACE =          -3493.94
            SOIL ZONE =         612647.20              SOIL ZONE =         -25101.45
     UNSATURATED ZONE =        -434667.04       UNSATURATED ZONE =         -18529.55
       SATURATED ZONE =         -91286.35         SATURATED ZONE =          -4765.43

 OVERALL BUDGET ERROR =           -670.01           BUDGET ERROR =            -27.30


  PERCENT DISCREPANCY =             -0.10    PERCENT DISCREPANCY =             -0.05



1
 SUMMARY VOLUMETRIC BUDGET FOR GSFLOW 
 DATE: 10 23 1980              CUMULATIVE TIME STEP:      23
 MODFLOW STRESS PERIOD      2     CURRENT TIME STEP:      23     ITERATIONS:      11

 -----------------------------------------------------------------------------------

   CUMULATIVE VOLUMES               L**3   RATES FOR THIS TIME STEP           L**3/T
   ------------------                      ------------------------

                                     IN                                         IN
                                     --                                         --
        PRECIPITATION =         704278.11          PRECIPITATION =                  
           STREAMFLOW =                               STREAMFLOW =                  
     GW BOUNDARY FLOW =                         GW BOUNDARY FLOW =                  
                WELLS =             68.38                  WELLS =              0.38


                                    OUT                                        OUT
                                    ---                                        ---
   EVAPOTRANSPIRATION =         455254.16     EVAPOTRANSPIRATION =          42525.44
           STREAMFLOW =         146954.22             STREAMFLOW =           6498.24
     GW BOUNDARY FLOW =          16649.17       GW BOUNDARY FLOW =            723.79
                WELLS =          49988.21                  WELLS =           1989.70

   INFLOWS - OUTFLOWS =          35500.73     INFLOWS - OUTFLOWS =         -51736.80
             --------                                   --------

 TOTAL STORAGE CHANGE =          36197.78         STORAGE CHANGE =         -51709.76
       --------------                             --------------
         LAND SURFACE =            189.15           LAND SURFACE =          -1024.58
            SOIL ZONE =         585215.23              SOIL ZONE =         -27431.97
     UNSATURATED ZONE =        -453073.09       UNSATURATED ZONE =         -18406.05
       SATURATED ZONE =         -96133.51         SATURATED ZONE =          -4847.16

 OVERALL BUDGET ERROR =           -697.05           BUDGET ERROR =            -27.05


  PERCENT DISCREPANCY =             -0.10    PERCENT DISCREPANCY =             -0.05



1
 SUMMARY VOLUMETRIC BUDGET FOR GSFLOW 
 DATE: 10 24 1980              CUMULATIVE TIME STEP:      24
 MODFLOW STRESS PERIOD      2     CURRENT TIME STEP:      24     ITERATIONS:      11

 -----------------------------------------------------------------------------------

   CUMULATIVE VOLUMES               L**3   RATES FOR THIS TIME STEP           L**3/T
   ------------------                      ------------------------

                                     IN                                         IN
                                     --                                         --
        PRECIPITATION =         704278.11          PRECIPITATION =                  
           STREAMFLOW =                               STREAMFLOW =                  
     GW BOUNDARY FLOW =                         GW BOUNDARY FLOW =                  
                WELLS =             68.76                  WELLS =              0.38


                                    OUT                                        OUT
                                    ---                                        ---
   EVAPOTRANSPIRATION =         488746.27     EVAPOTRANSPIRATION =          33492.10
           STREAMFLOW =         153311.25             STREAMFLOW =           6357.03
     GW BOUNDARY FLOW =          17372.91       GW BOUNDARY FLOW =            723.74
                WELLS =          51961.82                  WELLS =           1973.62

   INFLOWS - OUTFLOWS =          -7045.39     INFLOWS - OUTFLOWS =         -42546.12
             --------                                   --------

 TOTAL STORAGE CHANGE =          -6321.56         STORAGE CHANGE =         -42519.34
       --------------                             --------------
         LAND SURFACE =             33.22           LAND SURFACE =           -155.92
            SOIL ZONE =         566068.45              SOIL ZONE =         -19146.79
     UNSATURATED ZONE =        -471372.59       UNSATURATED ZONE =         -18299.50
       SATURATED ZONE =        -101050.64         SATURATED ZONE =          -4917.13

 OVERALL BUDGET ERROR =           -723.83           BUDGET ERROR =            -26.77


  PERCENT DISCREPANCY =             -0.10    PERCENT DISCREPANCY =             -0.06



1
 SUMMARY VOLUMETRIC BUDGET FOR GSFLOW 
 DATE: 10 25 1980              CUMULATIVE TIME STEP:      25
 MODFLOW STRESS PERIOD      2     CURRENT TIME STEP:      25     ITERATIONS:      11

 -----------------------------------------------------------------------------------

   CUMULATIVE VOLUMES               L**3   RATES FOR THIS TIME STEP           L**3/T
   ------------------                      ------------------------

                                     IN                                         IN
                                     --                                         --
        PRECIPITATION =         704278.11          PRECIPITATION =                  
           STREAMFLOW =                               STREAMFLOW =                  
     GW BOUNDARY FLOW =                         GW BOUNDARY FLOW =                  
                WELLS =             69.13                  WELLS =              0.38


                                    OUT                                        OUT
                                    ---                                        ---
   EVAPOTRANSPIRATION =         499945.35     EVAPOTRANSPIRATION =          11199.08
           STREAMFLOW =         159572.72             STREAMFLOW =           6261.47
     GW BOUNDARY FLOW =          18096.61       GW BOUNDARY FLOW =            723.70
                WELLS =          53920.69                  WELLS =           1958.87

   INFLOWS - OUTFLOWS =         -27188.13     INFLOWS - OUTFLOWS =         -20142.74
             --------                                   --------

 TOTAL STORAGE CHANGE =         -26437.70         STORAGE CHANGE =         -20116.14
       --------------                             --------------
         LAND SURFACE =             17.15           LAND SURFACE =            -16.07
            SOIL ZONE =         569142.17              SOIL ZONE =           3073.72
     UNSATURATED ZONE =        -489557.40       UNSATURATED ZONE =         -18184.81
       SATURATED ZONE =        -106039.63         SATURATED ZONE =          -4988.99

 OVERALL BUDGET ERROR =           -750.43           BUDGET ERROR =            -26.60


  PERCENT DISCREPANCY =             -0.10    PERCENT DISCREPANCY =             -0.13



1
 SUMMARY VOLUMETRIC BUDGET FOR GSFLOW 
 DATE: 10 26 1980              CUMULATIVE TIME STEP:      26
 MODFLOW STRESS PERIOD      2     CURRENT TIME STEP:      26     ITERATIONS:      10

 -----------------------------------------------------------------------------------

   CUMULATIVE VOLUMES               L**3   RATES FOR THIS TIME STEP           L**3/T
   ------------------                      ------------------------

                                     IN                                         IN
                                     --                                         --
        PRECIPITATION =         893052.32          PRECIPITATION =         188774.21
           STREAMFLOW =                               STREAMFLOW =                  
     GW BOUNDARY FLOW =                         GW BOUNDARY FLOW =                  
                WELLS =             69.51                  WELLS =              0.38


                                    OUT                                        OUT
                                    ---                                        ---
   EVAPOTRANSPIRATION =         511167.85     EVAPOTRANSPIRATION =          11222.50
           STREAMFLOW =         166892.19             STREAMFLOW =           7319.47
     GW BOUNDARY FLOW =          18820.37       GW BOUNDARY FLOW =            723.76
                WELLS =          55865.59                  WELLS =           1944.90

   INFLOWS - OUTFLOWS =         140375.83     INFLOWS - OUTFLOWS =         167563.96
             --------                                   --------

 TOTAL STORAGE CHANGE =         141152.95         STORAGE CHANGE =         167590.65
       --------------                             --------------
         LAND SURFACE =         112871.43           LAND SURFACE =         112854.28
            SOIL ZONE =         646811.05              SOIL ZONE =          77668.88
     UNSATURATED ZONE =        -507646.11       UNSATURATED ZONE =         -18088.71
       SATURATED ZONE =        -110883.43         SATURATED ZONE =          -4843.80

 OVERALL BUDGET ERROR =           -777.12           BUDGET ERROR =            -26.70


  PERCENT DISCREPANCY =             -0.09    PERCENT DISCREPANCY =             -0.01



1
 SUMMARY VOLUMETRIC BUDGET FOR GSFLOW 
 DATE: 10 27 1980              CUMULATIVE TIME STEP:      27
 MODFLOW STRESS PERIOD      2     CURRENT TIME STEP:      27     ITERATIONS:      11

 -----------------------------------------------------------------------------------

   CUMULATIVE VOLUMES               L**3   RATES FOR THIS TIME STEP           L**3/T
   ------------------                      ------------------------

                                     IN                                         IN
                                     --                                         --
        PRECIPITATION =         893052.32          PRECIPITATION =                  
           STREAMFLOW =                               STREAMFLOW =                  
     GW BOUNDARY FLOW =                         GW BOUNDARY FLOW =                  
                WELLS =             69.89                  WELLS =              0.38


                                    OUT                                        OUT
                                    ---                                        ---
   EVAPOTRANSPIRATION =         534945.88     EVAPOTRANSPIRATION =          23778.02
           STREAMFLOW =         173866.05             STREAMFLOW =           6973.87
     GW BOUNDARY FLOW =          19544.15       GW BOUNDARY FLOW =            723.77
                WELLS =          57797.14                  WELLS =           1931.54

   INFLOWS - OUTFLOWS =         106969.00     INFLOWS - OUTFLOWS =         -33406.83
             --------                                   --------

 TOTAL STORAGE CHANGE =         107772.52         STORAGE CHANGE =         -33380.43
       --------------                             --------------
         LAND SURFACE =          58121.66           LAND SURFACE =         -54749.77
            SOIL ZONE =         691113.05              SOIL ZONE =          44302.00
     UNSATURATED ZONE =        -525639.77       UNSATURATED ZONE =         -17993.66
       SATURATED ZONE =        -115822.42         SATURATED ZONE =          -4939.00

 OVERALL BUDGET ERROR =           -803.52           BUDGET ERROR =            -26.40


  PERCENT DISCREPANCY =             -0.09    PERCENT DISCREPANCY =             -0.08



1
 SUMMARY VOLUMETRIC BUDGET FOR GSFLOW 
 DATE: 10 28 1980              CUMULATIVE TIME STEP:      28
 MODFLOW STRESS PERIOD      2     CURRENT TIME STEP:      28     ITERATIONS:      11

 -----------------------------------------------------------------------------------

   CUMULATIVE VOLUMES               L**3   RATES FOR THIS TIME STEP           L**3/T
   ------------------                      ------------------------

                                     IN                                         IN
                                     --                                         --
        PRECIPITATION =         893052.32          PRECIPITATION =                  
           STREAMFLOW =                               STREAMFLOW =                  
     GW BOUNDARY FLOW =                         GW BOUNDARY FLOW =                  
                WELLS =             70.28                  WELLS =              0.38


                                    OUT                                        OUT
                                    ---                                        ---
   EVAPOTRANSPIRATION =         561606.49     EVAPOTRANSPIRATION =          26660.61
           STREAMFLOW =         180785.65             STREAMFLOW =           6919.60
     GW BOUNDARY FLOW =          20267.91       GW BOUNDARY FLOW =            723.77
                WELLS =          59715.88                  WELLS =           1918.75

   INFLOWS - OUTFLOWS =          70746.65     INFLOWS - OUTFLOWS =         -36222.35
             --------                                   --------

 TOTAL STORAGE CHANGE =          71578.26         STORAGE CHANGE =         -36194.26
       --------------                             --------------
         LAND SURFACE =          19525.56           LAND SURFACE =         -38596.10
            SOIL ZONE =         716440.03              SOIL ZONE =          25326.98
     UNSATURATED ZONE =        -543533.43       UNSATURATED ZONE =         -17893.67
       SATURATED ZONE =        -120853.90         SATURATED ZONE =          -5031.47

 OVERALL BUDGET ERROR =           -831.61           BUDGET ERROR =            -28.09


  PERCENT DISCREPANCY =             -0.09    PERCENT DISCREPANCY =             -0.08



1
 SUMMARY VOLUMETRIC BUDGET FOR GSFLOW 
 DATE: 10 29 1980              CUMULATIVE TIME STEP:      29
 MODFLOW STRESS PERIOD      2     CURRENT TIME STEP:      29     ITERATIONS:      11

 -----------------------------------------------------------------------------------

   CUMULATIVE VOLUMES               L**3   RATES FOR THIS TIME STEP           L**3/T
   ------------------                      ------------------------

                                     IN                                         IN
                                     --                                         --
        PRECIPITATION =         893052.32          PRECIPITATION =                  
           STREAMFLOW =                               STREAMFLOW =                  
     GW BOUNDARY FLOW =                         GW BOUNDARY FLOW =                  
                WELLS =            108.95                  WELLS =             38.68


                                    OUT                                        OUT
                                    ---                                        ---
   EVAPOTRANSPIRATION =         600225.86     EVAPOTRANSPIRATION =          38619.37
           STREAMFLOW =         187675.00             STREAMFLOW =           6889.35
     GW BOUNDARY FLOW =          20991.66       GW BOUNDARY FLOW =            723.75
                WELLS =          61182.02                  WELLS =           1466.14

   INFLOWS - OUTFLOWS =          23086.72     INFLOWS - OUTFLOWS =         -47659.92
             --------                                   --------

 TOTAL STORAGE CHANGE =          23949.29         STORAGE CHANGE =         -47628.97
       --------------                             --------------
         LAND SURFACE =            260.92           LAND SURFACE =         -19264.64
            SOIL ZONE =         710569.82              SOIL ZONE =          -5870.21
     UNSATURATED ZONE =        -561316.94       UNSATURATED ZONE =         -17783.51
       SATURATED ZONE =        -125564.51         SATURATED ZONE =          -4710.61

 OVERALL BUDGET ERROR =           -862.57           BUDGET ERROR =            -30.96


  PERCENT DISCREPANCY =             -0.10    PERCENT DISCREPANCY =             -0.06



1
 SUMMARY VOLUMETRIC BUDGET FOR GSFLOW 
 DATE: 10 30 1980              CUMULATIVE TIME STEP:      30
 MODFLOW STRESS PERIOD      2     CURRENT TIME STEP:      30     ITERATIONS:      11

 -----------------------------------------------------------------------------------

   CUMULATIVE VOLUMES               L**3   RATES FOR THIS TIME STEP           L**3/T
   ------------------                      ------------------------

                                     IN                                         IN
                                     --                                         --
        PRECIPITATION =         893052.32          PRECIPITATION =                  
           STREAMFLOW =                               STREAMFLOW =                  
     GW BOUNDARY FLOW =                         GW BOUNDARY FLOW =                  
                WELLS =            109.33                  WELLS =              0.38


                                    OUT                                        OUT
                                    ---                                        ---
   EVAPOTRANSPIRATION =         642602.06     EVAPOTRANSPIRATION =          42376.20
           STREAMFLOW =         194494.19             STREAMFLOW =           6819.19
     GW BOUNDARY FLOW =          21715.39       GW BOUNDARY FLOW =            723.73
                WELLS =          63105.14                  WELLS =           1923.12

   INFLOWS - OUTFLOWS =         -28755.13     INFLOWS - OUTFLOWS =         -51841.86
             --------                                   --------

 TOTAL STORAGE CHANGE =         -27867.09         STORAGE CHANGE =         -51816.38
       --------------                             --------------
         LAND SURFACE =                             LAND SURFACE =           -260.92
            SOIL ZONE =         681975.23              SOIL ZONE =         -28594.60
     UNSATURATED ZONE =        -578989.28       UNSATURATED ZONE =         -17672.34
       SATURATED ZONE =        -130853.04         SATURATED ZONE =          -5288.53

 OVERALL BUDGET ERROR =           -888.04           BUDGET ERROR =            -25.48


  PERCENT DISCREPANCY =             -0.10    PERCENT DISCREPANCY =             -0.05



1
 SUMMARY VOLUMETRIC BUDGET FOR GSFLOW 
 DATE: 10 31 1980              CUMULATIVE TIME STEP:      31
 MODFLOW STRESS PERIOD      2     CURRENT TIME STEP:      31     ITERATIONS:      11

 -----------------------------------------------------------------------------------

   CUMULATIVE VOLUMES               L**3   RATES FOR THIS TIME STEP           L**3/T
   ------------------                      ------------------------

                                     IN                                         IN
                                     --                                         --
        PRECIPITATION =         893052.32          PRECIPITATION =                  
           STREAMFLOW =                               STREAMFLOW =                  
     GW BOUNDARY FLOW =                         GW BOUNDARY FLOW =                  
                WELLS =            123.64                  WELLS =             14.30


                                    OUT                                        OUT
                                    ---                                        ---
   EVAPOTRANSPIRATION =         678800.15     EVAPOTRANSPIRATION =          36198.09
           STREAMFLOW =         201235.85             STREAMFLOW =           6741.66
     GW BOUNDARY FLOW =          22439.10       GW BOUNDARY FLOW =            723.71
                WELLS =          64536.97                  WELLS =           1431.82

   INFLOWS - OUTFLOWS =         -73836.11     INFLOWS - OUTFLOWS =         -45080.98
             --------                                   --------

 TOTAL STORAGE CHANGE =         -72922.79         STORAGE CHANGE =         -45055.70
       --------------                             --------------
         LAND SURFACE =                             LAND SURFACE =                  
            SOIL ZONE =         659386.53              SOIL ZONE =         -22588.70
     UNSATURATED ZONE =        -596551.32       UNSATURATED ZONE =         -17562.04
       SATURATED ZONE =        -135758.00         SATURATED ZONE =          -4904.96

 OVERALL BUDGET ERROR =           -913.32           BUDGET ERROR =            -25.28


  PERCENT DISCREPANCY =             -0.09    PERCENT DISCREPANCY =             -0.06



1
 SUMMARY VOLUMETRIC BUDGET FOR GSFLOW 
 DATE: 11 01 1980              CUMULATIVE TIME STEP:      32
 MODFLOW STRESS PERIOD      2     CURRENT TIME STEP:      32     ITERATIONS:      11

 -----------------------------------------------------------------------------------

   CUMULATIVE VOLUMES               L**3   RATES FOR THIS TIME STEP           L**3/T
   ------------------                      ------------------------

                                     IN                                         IN
                                     --                                         --
        PRECIPITATION =         893052.32          PRECIPITATION =                  
           STREAMFLOW =                               STREAMFLOW =                  
     GW BOUNDARY FLOW =                         GW BOUNDARY FLOW =                  
                WELLS =            124.02                  WELLS =              0.38


                                    OUT                                        OUT
                                    ---                                        ---
   EVAPOTRANSPIRATION =         717103.27     EVAPOTRANSPIRATION =          38303.12
           STREAMFLOW =         207855.93             STREAMFLOW =           6620.07
     GW BOUNDARY FLOW =          23162.79       GW BOUNDARY FLOW =            723.69
                WELLS =          66430.94                  WELLS =           1893.97

   INFLOWS - OUTFLOWS =        -121376.58     INFLOWS - OUTFLOWS =         -47540.47
             --------                                   --------

 TOTAL STORAGE CHANGE =        -120438.09         STORAGE CHANGE =         -47515.30
       --------------                             --------------
         LAND SURFACE =                             LAND SURFACE =                  
            SOIL ZONE =         634764.43              SOIL ZONE =         -24622.10
     UNSATURATED ZONE =        -614004.45       UNSATURATED ZONE =         -17453.13
       SATURATED ZONE =        -141198.06         SATURATED ZONE =          -5440.06

 OVERALL BUDGET ERROR =           -938.50           BUDGET ERROR =            -25.17


  PERCENT DISCREPANCY =             -0.09    PERCENT DISCREPANCY =             -0.05



1
 SUMMARY VOLUMETRIC BUDGET FOR GSFLOW 
 DATE: 11 02 1980              CUMULATIVE TIME STEP:      33
 MODFLOW STRESS PERIOD      2     CURRENT TIME STEP:      33     ITERATIONS:      11

 -----------------------------------------------------------------------------------

   CUMULATIVE VOLUMES               L**3   RATES FOR THIS TIME STEP           L**3/T
   ------------------                      ------------------------

                                     IN                                         IN
                                     --                                         --
        PRECIPITATION =         893052.32          PRECIPITATION =                  
           STREAMFLOW =                               STREAMFLOW =                  
     GW BOUNDARY FLOW =                         GW BOUNDARY FLOW =                  
                WELLS =            124.40                  WELLS =              0.38


                                    OUT                                        OUT
                                    ---                                        ---
   EVAPOTRANSPIRATION =         748349.53     EVAPOTRANSPIRATION =          31246.26
           STREAMFLOW =         214352.32             STREAMFLOW =           6496.39
     GW BOUNDARY FLOW =          23886.45       GW BOUNDARY FLOW =            723.66
                WELLS =          68298.31                  WELLS =           1867.37

   INFLOWS - OUTFLOWS =        -161709.88     INFLOWS - OUTFLOWS =         -40333.30
             --------                                   --------

 TOTAL STORAGE CHANGE =        -160746.45         STORAGE CHANGE =         -40308.36
       --------------                             --------------
         LAND SURFACE =                             LAND SURFACE =                  
            SOIL ZONE =         617287.53              SOIL ZONE =         -17476.90
     UNSATURATED ZONE =        -631364.45       UNSATURATED ZONE =         -17360.00
       SATURATED ZONE =        -146669.53         SATURATED ZONE =          -5471.46

 OVERALL BUDGET ERROR =           -963.43           BUDGET ERROR =            -24.94


  PERCENT DISCREPANCY =             -0.09    PERCENT DISCREPANCY =             -0.06



1
 SUMMARY VOLUMETRIC BUDGET FOR GSFLOW 
 DATE: 11 03 1980              CUMULATIVE TIME STEP:      34
 MODFLOW STRESS PERIOD      2     CURRENT TIME STEP:      34     ITERATIONS:      11

 -----------------------------------------------------------------------------------

   CUMULATIVE VOLUMES               L**3   RATES FOR THIS TIME STEP           L**3/T
   ------------------                      ------------------------

                                     IN                                         IN
                                     --                                         --
        PRECIPITATION =         893052.32          PRECIPITATION =                  
           STREAMFLOW =                               STREAMFLOW =                  
     GW BOUNDARY FLOW =                         GW BOUNDARY FLOW =                  
                WELLS =            124.78                  WELLS =              0.38


                                    OUT                                        OUT
                                    ---                                        ---
   EVAPOTRANSPIRATION =         787537.73     EVAPOTRANSPIRATION =          39188.20
           STREAMFLOW =         220734.47             STREAMFLOW =           6382.15
     GW BOUNDARY FLOW =          24610.08       GW BOUNDARY FLOW =            723.64
                WELLS =          70152.04                  WELLS =           1853.73

   INFLOWS - OUTFLOWS =        -209857.23     INFLOWS - OUTFLOWS =         -48147.34
             --------                                   --------

 TOTAL STORAGE CHANGE =        -208869.15         STORAGE CHANGE =         -48122.70
       --------------                             --------------
         LAND SURFACE =                             LAND SURFACE =                  
            SOIL ZONE =         591949.83              SOIL ZONE =         -25337.70
     UNSATURATED ZONE =        -648635.49       UNSATURATED ZONE =         -17271.04
       SATURATED ZONE =        -152183.48         SATURATED ZONE =          -5513.96

 OVERALL BUDGET ERROR =           -988.08           BUDGET ERROR =            -24.64


  PERCENT DISCREPANCY =             -0.09    PERCENT DISCREPANCY =             -0.05



1
 SUMMARY VOLUMETRIC BUDGET FOR GSFLOW 
 DATE: 11 04 1980              CUMULATIVE TIME STEP:      35
 MODFLOW STRESS PERIOD      2     CURRENT TIME STEP:      35     ITERATIONS:      11

 -----------------------------------------------------------------------------------

   CUMULATIVE VOLUMES               L**3   RATES FOR THIS TIME STEP           L**3/T
   ------------------                      ------------------------

                                     IN                                         IN
                                     --                                         --
        PRECIPITATION =         893052.32          PRECIPITATION =                  
           STREAMFLOW =                               STREAMFLOW =                  
     GW BOUNDARY FLOW =                         GW BOUNDARY FLOW =                  
                WELLS =            125.16                  WELLS =              0.38


                                    OUT                                        OUT
                                    ---                                        ---
   EVAPOTRANSPIRATION =         827874.24     EVAPOTRANSPIRATION =          40336.51
           STREAMFLOW =         226974.17             STREAMFLOW =           6239.70
     GW BOUNDARY FLOW =          25333.69       GW BOUNDARY FLOW =            723.61
                WELLS =          71994.21                  WELLS =           1842.17

   INFLOWS - OUTFLOWS =        -258998.83     INFLOWS - OUTFLOWS =         -49141.60
             --------                                   --------

 TOTAL STORAGE CHANGE =        -257986.03         STORAGE CHANGE =         -49116.88
       --------------                             --------------
         LAND SURFACE =                             LAND SURFACE =                  
            SOIL ZONE =         565578.31              SOIL ZONE =         -26371.51
     UNSATURATED ZONE =        -665814.20       UNSATURATED ZONE =         -17178.71
       SATURATED ZONE =        -157750.14         SATURATED ZONE =          -5566.65

 OVERALL BUDGET ERROR =          -1012.80           BUDGET ERROR =            -24.73


  PERCENT DISCREPANCY =             -0.09    PERCENT DISCREPANCY =             -0.05



1
 SUMMARY VOLUMETRIC BUDGET FOR GSFLOW 
 DATE: 11 05 1980              CUMULATIVE TIME STEP:      36
 MODFLOW STRESS PERIOD      2     CURRENT TIME STEP:      36     ITERATIONS:      10

 -----------------------------------------------------------------------------------

   CUMULATIVE VOLUMES               L**3   RATES FOR THIS TIME STEP           L**3/T
   ------------------                      ------------------------

                                     IN                                         IN
                                     --                                         --
        PRECIPITATION =         893052.32          PRECIPITATION =                  
           STREAMFLOW =                               STREAMFLOW =                  
     GW BOUNDARY FLOW =                         GW BOUNDARY FLOW =                  
[...]
     UNSATURATED ZONE =         359173.31       UNSATURATED ZONE =            376.26
       SATURATED ZONE =       -1.1741D+07         SATURATED ZONE =          -9250.88

 OVERALL BUDGET ERROR =          -4255.00           BUDGET ERROR =              0.33


  PERCENT DISCREPANCY =             -0.00    PERCENT DISCREPANCY =              0.00



1
 SUMMARY VOLUMETRIC BUDGET FOR GSFLOW 
 DATE: 01 23 1984              CUMULATIVE TIME STEP:    1210
 MODFLOW STRESS PERIOD      2     CURRENT TIME STEP:    1210     ITERATIONS:      11

 -----------------------------------------------------------------------------------

   CUMULATIVE VOLUMES               L**3   RATES FOR THIS TIME STEP           L**3/T
   ------------------                      ------------------------

                                     IN                                         IN
                                     --                                         --
        PRECIPITATION =        1.3620D+08          PRECIPITATION =                  
           STREAMFLOW =                               STREAMFLOW =                  
     GW BOUNDARY FLOW =                         GW BOUNDARY FLOW =                  
                WELLS =          25933.39                  WELLS =              9.61


                                    OUT                                        OUT
                                    ---                                        ---
   EVAPOTRANSPIRATION =        6.0527D+07     EVAPOTRANSPIRATION =          19678.64
           STREAMFLOW =        6.3070D+07             STREAMFLOW =          15918.35
     GW BOUNDARY FLOW =         875794.30       GW BOUNDARY FLOW =            718.83
                WELLS =        1082635.37                  WELLS =            446.20

   INFLOWS - OUTFLOWS =        1.0669D+07     INFLOWS - OUTFLOWS =         -36752.41
             --------                                   --------

 TOTAL STORAGE CHANGE =        1.0673D+07         STORAGE CHANGE =         -36752.88
       --------------                             --------------
         LAND SURFACE =        1.9581D+07           LAND SURFACE =         -19262.69
            SOIL ZONE =        2483386.35              SOIL ZONE =          -8697.47
     UNSATURATED ZONE =         359221.00       UNSATURATED ZONE =             47.69
       SATURATED ZONE =       -1.1750D+07         SATURATED ZONE =          -8840.40

 OVERALL BUDGET ERROR =          -4254.53           BUDGET ERROR =              0.47


  PERCENT DISCREPANCY =             -0.00    PERCENT DISCREPANCY =              0.00



1
 SUMMARY VOLUMETRIC BUDGET FOR GSFLOW 
 DATE: 01 24 1984              CUMULATIVE TIME STEP:    1211
 MODFLOW STRESS PERIOD      2     CURRENT TIME STEP:    1211     ITERATIONS:       9

 -----------------------------------------------------------------------------------

   CUMULATIVE VOLUMES               L**3   RATES FOR THIS TIME STEP           L**3/T
   ------------------                      ------------------------

                                     IN                                         IN
                                     --                                         --
        PRECIPITATION =        1.3620D+08          PRECIPITATION =                  
           STREAMFLOW =                               STREAMFLOW =                  
     GW BOUNDARY FLOW =                         GW BOUNDARY FLOW =                  
                WELLS =          25944.99                  WELLS =             11.60


                                    OUT                                        OUT
                                    ---                                        ---
   EVAPOTRANSPIRATION =        6.0566D+07     EVAPOTRANSPIRATION =          38332.83
           STREAMFLOW =        6.3086D+07             STREAMFLOW =          15561.10
     GW BOUNDARY FLOW =         876513.04       GW BOUNDARY FLOW =            718.74
                WELLS =        1083081.52                  WELLS =            446.16

   INFLOWS - OUTFLOWS =        1.0614D+07     INFLOWS - OUTFLOWS =         -55047.23
             --------                                   --------

 TOTAL STORAGE CHANGE =        1.0618D+07         STORAGE CHANGE =         -55047.49
       --------------                             --------------
         LAND SURFACE =        1.9544D+07           LAND SURFACE =         -37051.24
            SOIL ZONE =        2474566.93              SOIL ZONE =          -8819.43
     UNSATURATED ZONE =         358945.96       UNSATURATED ZONE =           -275.04
       SATURATED ZONE =       -1.1759D+07         SATURATED ZONE =          -8901.78

 OVERALL BUDGET ERROR =          -4254.27           BUDGET ERROR =              0.26


  PERCENT DISCREPANCY =             -0.00    PERCENT DISCREPANCY =              0.00



1
 SUMMARY VOLUMETRIC BUDGET FOR GSFLOW 
 DATE: 01 25 1984              CUMULATIVE TIME STEP:    1212
 MODFLOW STRESS PERIOD      2     CURRENT TIME STEP:    1212     ITERATIONS:       8

 -----------------------------------------------------------------------------------

   CUMULATIVE VOLUMES               L**3   RATES FOR THIS TIME STEP           L**3/T
   ------------------                      ------------------------

                                     IN                                         IN
                                     --                                         --
        PRECIPITATION =        1.3620D+08          PRECIPITATION =                  
           STREAMFLOW =                               STREAMFLOW =                  
     GW BOUNDARY FLOW =                         GW BOUNDARY FLOW =                  
                WELLS =          25958.20                  WELLS =             13.20


                                    OUT                                        OUT
                                    ---                                        ---
   EVAPOTRANSPIRATION =        6.0608D+07     EVAPOTRANSPIRATION =          42187.28
           STREAMFLOW =        6.3101D+07             STREAMFLOW =          15229.58
     GW BOUNDARY FLOW =         877231.69       GW BOUNDARY FLOW =            718.65
                WELLS =        1083526.89                  WELLS =            445.37

   INFLOWS - OUTFLOWS =        1.0556D+07     INFLOWS - OUTFLOWS =         -58567.67
             --------                                   --------

 TOTAL STORAGE CHANGE =        1.0560D+07         STORAGE CHANGE =         -58568.15
       --------------                             --------------
         LAND SURFACE =        1.9503D+07           LAND SURFACE =         -40750.77
            SOIL ZONE =        2466316.39              SOIL ZONE =          -8250.54
     UNSATURATED ZONE =         358319.45       UNSATURATED ZONE =           -626.50
       SATURATED ZONE =       -1.1768D+07         SATURATED ZONE =          -8940.33

 OVERALL BUDGET ERROR =          -4253.79           BUDGET ERROR =              0.48


  PERCENT DISCREPANCY =             -0.00    PERCENT DISCREPANCY =              0.00



1
 SUMMARY VOLUMETRIC BUDGET FOR GSFLOW 
 DATE: 01 26 1984              CUMULATIVE TIME STEP:    1213
 MODFLOW STRESS PERIOD      2     CURRENT TIME STEP:    1213     ITERATIONS:       8

 -----------------------------------------------------------------------------------

   CUMULATIVE VOLUMES               L**3   RATES FOR THIS TIME STEP           L**3/T
   ------------------                      ------------------------

                                     IN                                         IN
                                     --                                         --
        PRECIPITATION =        1.3620D+08          PRECIPITATION =                  
           STREAMFLOW =                               STREAMFLOW =                  
     GW BOUNDARY FLOW =                         GW BOUNDARY FLOW =                  
                WELLS =          25971.80                  WELLS =             13.60


                                    OUT                                        OUT
                                    ---                                        ---
   EVAPOTRANSPIRATION =        6.0636D+07     EVAPOTRANSPIRATION =          28022.68
           STREAMFLOW =        6.3116D+07             STREAMFLOW =          14933.36
     GW BOUNDARY FLOW =         877950.26       GW BOUNDARY FLOW =            718.56
                WELLS =        1083970.18                  WELLS =            443.29

   INFLOWS - OUTFLOWS =        1.0511D+07     INFLOWS - OUTFLOWS =         -44104.29
             --------                                   --------

 TOTAL STORAGE CHANGE =        1.0516D+07         STORAGE CHANGE =         -44104.66
       --------------                             --------------
         LAND SURFACE =        1.9476D+07           LAND SURFACE =         -27334.71
            SOIL ZONE =        2459462.25              SOIL ZONE =          -6854.14
     UNSATURATED ZONE =         357373.72       UNSATURATED ZONE =           -945.73
       SATURATED ZONE =       -1.1777D+07         SATURATED ZONE =          -8970.07

 OVERALL BUDGET ERROR =          -4253.42           BUDGET ERROR =              0.37


  PERCENT DISCREPANCY =             -0.00    PERCENT DISCREPANCY =              0.00



1
 SUMMARY VOLUMETRIC BUDGET FOR GSFLOW 
 DATE: 01 27 1984              CUMULATIVE TIME STEP:    1214
 MODFLOW STRESS PERIOD      2     CURRENT TIME STEP:    1214     ITERATIONS:       8

 -----------------------------------------------------------------------------------

   CUMULATIVE VOLUMES               L**3   RATES FOR THIS TIME STEP           L**3/T
   ------------------                      ------------------------

                                     IN                                         IN
                                     --                                         --
        PRECIPITATION =        1.3620D+08          PRECIPITATION =                  
           STREAMFLOW =                               STREAMFLOW =                  
     GW BOUNDARY FLOW =                         GW BOUNDARY FLOW =                  
                WELLS =          25985.37                  WELLS =             13.58


                                    OUT                                        OUT
                                    ---                                        ---
   EVAPOTRANSPIRATION =        6.0662D+07     EVAPOTRANSPIRATION =          25776.18
           STREAMFLOW =        6.3131D+07             STREAMFLOW =          14676.91
     GW BOUNDARY FLOW =         878668.73       GW BOUNDARY FLOW =            718.48
                WELLS =        1084411.03                  WELLS =            440.84

   INFLOWS - OUTFLOWS =        1.0470D+07     INFLOWS - OUTFLOWS =         -41598.84
             --------                                   --------

 TOTAL STORAGE CHANGE =        1.0474D+07         STORAGE CHANGE =         -41599.14
       --------------                             --------------
         LAND SURFACE =        1.9451D+07           LAND SURFACE =         -24897.90
            SOIL ZONE =        2452953.74              SOIL ZONE =          -6508.51
     UNSATURATED ZONE =         356170.24       UNSATURATED ZONE =          -1203.48
       SATURATED ZONE =       -1.1786D+07         SATURATED ZONE =          -8989.25

 OVERALL BUDGET ERROR =          -4253.12           BUDGET ERROR =              0.30


  PERCENT DISCREPANCY =             -0.00    PERCENT DISCREPANCY =              0.00



1
 SUMMARY VOLUMETRIC BUDGET FOR GSFLOW 
 DATE: 01 28 1984              CUMULATIVE TIME STEP:    1215
 MODFLOW STRESS PERIOD      2     CURRENT TIME STEP:    1215     ITERATIONS:       8

 -----------------------------------------------------------------------------------

   CUMULATIVE VOLUMES               L**3   RATES FOR THIS TIME STEP           L**3/T
   ------------------                      ------------------------

                                     IN                                         IN
                                     --                                         --
        PRECIPITATION =        1.3620D+08          PRECIPITATION =                  
           STREAMFLOW =                               STREAMFLOW =                  
     GW BOUNDARY FLOW =                         GW BOUNDARY FLOW =                  
                WELLS =          25998.81                  WELLS =             13.44


                                    OUT                                        OUT
                                    ---                                        ---
   EVAPOTRANSPIRATION =        6.0707D+07     EVAPOTRANSPIRATION =          44818.77
           STREAMFLOW =        6.3145D+07             STREAMFLOW =          14447.64
     GW BOUNDARY FLOW =         879387.14       GW BOUNDARY FLOW =            718.40
                WELLS =        1084849.40                  WELLS =            438.37

   INFLOWS - OUTFLOWS =        1.0409D+07     INFLOWS - OUTFLOWS =         -60409.74
             --------                                   --------

 TOTAL STORAGE CHANGE =        1.0414D+07         STORAGE CHANGE =         -60409.93
       --------------                             --------------
         LAND SURFACE =        1.9408D+07           LAND SURFACE =         -43102.77
            SOIL ZONE =        2446137.57              SOIL ZONE =          -6816.16
     UNSATURATED ZONE =         354702.88       UNSATURATED ZONE =          -1467.36
       SATURATED ZONE =       -1.1795D+07         SATURATED ZONE =          -9023.64

 OVERALL BUDGET ERROR =          -4252.93           BUDGET ERROR =              0.18


  PERCENT DISCREPANCY =             -0.00    PERCENT DISCREPANCY =              0.00



1
 SUMMARY VOLUMETRIC BUDGET FOR GSFLOW 
 DATE: 01 29 1984              CUMULATIVE TIME STEP:    1216
 MODFLOW STRESS PERIOD      2     CURRENT TIME STEP:    1216     ITERATIONS:       8

 -----------------------------------------------------------------------------------

   CUMULATIVE VOLUMES               L**3   RATES FOR THIS TIME STEP           L**3/T
   ------------------                      ------------------------

                                     IN                                         IN
                                     --                                         --
        PRECIPITATION =        1.3620D+08          PRECIPITATION =                  
           STREAMFLOW =                               STREAMFLOW =                  
     GW BOUNDARY FLOW =                         GW BOUNDARY FLOW =                  
                WELLS =          26012.07                  WELLS =             13.26


                                    OUT                                        OUT
                                    ---                                        ---
   EVAPOTRANSPIRATION =        6.0750D+07     EVAPOTRANSPIRATION =          43246.61
           STREAMFLOW =        6.3160D+07             STREAMFLOW =          14240.79
     GW BOUNDARY FLOW =         880105.47       GW BOUNDARY FLOW =            718.33
                WELLS =        1085285.35                  WELLS =            435.96

   INFLOWS - OUTFLOWS =        1.0351D+07     INFLOWS - OUTFLOWS =         -58628.43
             --------                                   --------

 TOTAL STORAGE CHANGE =        1.0355D+07         STORAGE CHANGE =         -58628.73
       --------------                             --------------
         LAND SURFACE =        1.9366D+07           LAND SURFACE =         -41626.99
            SOIL ZONE =        2439796.70              SOIL ZONE =          -6340.87
     UNSATURATED ZONE =         353106.96       UNSATURATED ZONE =          -1595.92
       SATURATED ZONE =       -1.1804D+07         SATURATED ZONE =          -9064.94

 OVERALL BUDGET ERROR =          -4252.64           BUDGET ERROR =              0.30


  PERCENT DISCREPANCY =             -0.00    PERCENT DISCREPANCY =              0.00



1
 SUMMARY VOLUMETRIC BUDGET FOR GSFLOW 
 DATE: 01 30 1984              CUMULATIVE TIME STEP:    1217
 MODFLOW STRESS PERIOD      2     CURRENT TIME STEP:    1217     ITERATIONS:       8

 -----------------------------------------------------------------------------------

   CUMULATIVE VOLUMES               L**3   RATES FOR THIS TIME STEP           L**3/T
   ------------------                      ------------------------

                                     IN                                         IN
                                     --                                         --
        PRECIPITATION =        1.3620D+08          PRECIPITATION =                  
           STREAMFLOW =                               STREAMFLOW =                  
     GW BOUNDARY FLOW =                         GW BOUNDARY FLOW =                  
                WELLS =          26025.15                  WELLS =             13.07


                                    OUT                                        OUT
                                    ---                                        ---
   EVAPOTRANSPIRATION =        6.0799D+07     EVAPOTRANSPIRATION =          49419.94
           STREAMFLOW =        6.3174D+07             STREAMFLOW =          14074.47
     GW BOUNDARY FLOW =         880823.74       GW BOUNDARY FLOW =            718.27
                WELLS =        1085718.97                  WELLS =            433.62

   INFLOWS - OUTFLOWS =        1.0286D+07     INFLOWS - OUTFLOWS =         -64633.22
             --------                                   --------

 TOTAL STORAGE CHANGE =        1.0290D+07         STORAGE CHANGE =         -64633.53
       --------------                             --------------
         LAND SURFACE =        1.9318D+07           LAND SURFACE =         -47838.38
            SOIL ZONE =        2433891.55              SOIL ZONE =          -5905.15
     UNSATURATED ZONE =         351290.21       UNSATURATED ZONE =          -1816.75
       SATURATED ZONE =       -1.1813D+07         SATURATED ZONE =          -9073.25

 OVERALL BUDGET ERROR =          -4252.33           BUDGET ERROR =              0.31


  PERCENT DISCREPANCY =             -0.00    PERCENT DISCREPANCY =              0.00



 Number of time steps:   1217;  Number of non-convergence:   0
 MF iterations:         12802;  SZ iterations:           12802
 Average MF iterations: 10.52;  Average SZ iterations:   10.52
 Maximum MF iterations:   485;  Maximum SZ iterations:     485

MF iteration distribution:      0    0    0    0    0    0    2  223  157  373
                              192  261    2    2    0    2    0    1    0    0
                                0    0    0    0    0    0    0    1    0    0
                                0    0    0    0    0    0    0    0    0    0
                                0    0    0    0    0    0    0    0    0    0
                                0    0    0    0    0    0    0    0    0    0
                                0    0    0    0    0    0    0    0    0    0
                                0    0    0    0    0    0    0    0    0    1

SZ computation distribution:    0    0    0    0    0    0    2  223  157  373
                              192  261    2    2    0    2    0    1    0    0
                                0    0    0    0    0    0    0    1    0    0
                                0    0    0    0    0    0    0    0    0    0
                                0    0    0    0    0    0    0    0    0    0
                                0    0    0    0    0    0    0    0    0    0
                                0    0    0    0    0    0    0    0    0    0
                                0    0    0    0    0    0    0    0    0    1

