1
 SUMMARY VOLUMETRIC BUDGET FOR GSFLOW 
 DATE: 10 20 1983              CUMULATIVE TIME STEP:    1114
 MODFLOW STRESS PERIOD      2     CURRENT TIME STEP:       7     ITERATIONS:      10

 -----------------------------------------------------------------------------------

   CUMULATIVE VOLUMES               L**3   RATES FOR THIS TIME STEP           L**3/T
   ------------------                      ------------------------

                                     IN                                         IN
                                     --                                         --
        PRECIPITATION =                            PRECIPITATION =                  
           STREAMFLOW =                               STREAMFLOW =                  
     GW BOUNDARY FLOW =                         GW BOUNDARY FLOW =                  
                WELLS =            151.70                  WELLS =             23.10


                                    OUT                                        OUT
                                    ---                                        ---
   EVAPOTRANSPIRATION =         177296.32     EVAPOTRANSPIRATION =          35284.00
           STREAMFLOW =          29001.00             STREAMFLOW =           4010.32
     GW BOUNDARY FLOW =           5021.05       GW BOUNDARY FLOW =            717.26
                WELLS =           8583.00                  WELLS =            893.31

   INFLOWS - OUTFLOWS =        -219749.67     INFLOWS - OUTFLOWS =         -40881.80
             --------                                   --------

 TOTAL STORAGE CHANGE =        -219731.26         STORAGE CHANGE =         -40879.05
       --------------                             --------------
         LAND SURFACE =         -10287.80           LAND SURFACE =          -4160.76
            SOIL ZONE =        -100292.70              SOIL ZONE =         -21412.68
     UNSATURATED ZONE =         -41682.72       UNSATURATED ZONE =          -6048.16
       SATURATED ZONE =         -67468.03         SATURATED ZONE =          -9257.45

 OVERALL BUDGET ERROR =            -18.42           BUDGET ERROR =             -2.75


  PERCENT DISCREPANCY =             -0.01    PERCENT DISCREPANCY =             -0.01



