1
 SUMMARY VOLUMETRIC BUDGET FOR GSFLOW 
 DATE: 10 07 1980              CUMULATIVE TIME STEP:       7
 MODFLOW STRESS PERIOD      2     CURRENT TIME STEP:       7     ITERATIONS:      10

 -----------------------------------------------------------------------------------

   CUMULATIVE VOLUMES               L**3   RATES FOR THIS TIME STEP           L**3/T
   ------------------                      ------------------------

                                     IN                                         IN
                                     --                                         --
        PRECIPITATION =                            PRECIPITATION =                  
           STREAMFLOW =                               STREAMFLOW =                  
     GW BOUNDARY FLOW =                         GW BOUNDARY FLOW =                  
                WELLS =              2.61                  WELLS =              0.38


                                    OUT                                        OUT
                                    ---                                        ---
   EVAPOTRANSPIRATION =          66255.19     EVAPOTRANSPIRATION =           9365.96
           STREAMFLOW =          40890.25             STREAMFLOW =           5688.54
     GW BOUNDARY FLOW =           5067.54       GW BOUNDARY FLOW =            723.82
                WELLS =          16940.66                  WELLS =           2303.51

   INFLOWS - OUTFLOWS =        -129151.03     INFLOWS - OUTFLOWS =         -18081.45
             --------                                   --------

 TOTAL STORAGE CHANGE =        -128927.62         STORAGE CHANGE =         -18050.29
       --------------                             --------------
         LAND SURFACE =                             LAND SURFACE =                  
            SOIL ZONE =          43743.66              SOIL ZONE =           6238.03
     UNSATURATED ZONE =        -144187.06       UNSATURATED ZONE =         -20266.32
       SATURATED ZONE =         -28484.22         SATURATED ZONE =          -4022.00

 OVERALL BUDGET ERROR =           -223.41           BUDGET ERROR =            -31.16


  PERCENT DISCREPANCY =             -0.17    PERCENT DISCREPANCY =             -0.17



1
 SUMMARY VOLUMETRIC BUDGET FOR GSFLOW 
 DATE: 10 14 1980              CUMULATIVE TIME STEP:      14
 MODFLOW STRESS PERIOD      2     CURRENT TIME STEP:      14     ITERATIONS:      11

 -----------------------------------------------------------------------------------

   CUMULATIVE VOLUMES               L**3   RATES FOR THIS TIME STEP           L**3/T
   ------------------                      ------------------------

                                     IN                                         IN
                                     --                                         --
        PRECIPITATION =         403289.47          PRECIPITATION =         174040.42
           STREAMFLOW =                               STREAMFLOW =                  
     GW BOUNDARY FLOW =                         GW BOUNDARY FLOW =                  
                WELLS =              5.25                  WELLS =              0.38


                                    OUT                                        OUT
                                    ---                                        ---
   EVAPOTRANSPIRATION =         143347.21     EVAPOTRANSPIRATION =           5462.50
           STREAMFLOW =          84320.29             STREAMFLOW =           6976.52
     GW BOUNDARY FLOW =          10134.18       GW BOUNDARY FLOW =            723.90
                WELLS =          32362.84                  WELLS =           2136.36

   INFLOWS - OUTFLOWS =         133130.19     INFLOWS - OUTFLOWS =         158741.51
             --------                                   --------

 TOTAL STORAGE CHANGE =         133564.95         STORAGE CHANGE =         158771.06
       --------------                             --------------
         LAND SURFACE =         150822.63           LAND SURFACE =         106712.03
            SOIL ZONE =         322716.00              SOIL ZONE =          75648.62
     UNSATURATED ZONE =        -282947.18       UNSATURATED ZONE =         -19478.30
       SATURATED ZONE =         -57026.49         SATURATED ZONE =          -4111.28

 OVERALL BUDGET ERROR =           -434.76           BUDGET ERROR =            -29.55


  PERCENT DISCREPANCY =             -0.11    PERCENT DISCREPANCY =             -0.02



1
 SUMMARY VOLUMETRIC BUDGET FOR GSFLOW 
 DATE: 10 21 1980              CUMULATIVE TIME STEP:      21
 MODFLOW STRESS PERIOD      2     CURRENT TIME STEP:      21     ITERATIONS:      11

 -----------------------------------------------------------------------------------

   CUMULATIVE VOLUMES               L**3   RATES FOR THIS TIME STEP           L**3/T
   ------------------                      ------------------------

                                     IN                                         IN
                                     --                                         --
        PRECIPITATION =         704278.11          PRECIPITATION =                  
           STREAMFLOW =                               STREAMFLOW =                  
     GW BOUNDARY FLOW =                         GW BOUNDARY FLOW =                  
                WELLS =             85.13                  WELLS =             17.89


                                    OUT                                        OUT
                                    ---                                        ---
   EVAPOTRANSPIRATION =         370203.56     EVAPOTRANSPIRATION =          46152.85
           STREAMFLOW =         133857.75             STREAMFLOW =           6934.55
     GW BOUNDARY FLOW =          15201.53       GW BOUNDARY FLOW =            723.91
                WELLS =          45096.26                  WELLS =           1174.41

   INFLOWS - OUTFLOWS =         140004.14     INFLOWS - OUTFLOWS =         -54967.83
             --------                                   --------

 TOTAL STORAGE CHANGE =         140638.60         STORAGE CHANGE =         -54940.23
       --------------                             --------------
         LAND SURFACE =           4707.67           LAND SURFACE =          -7723.11
            SOIL ZONE =         637761.74              SOIL ZONE =         -24673.00
     UNSATURATED ZONE =        -416143.58       UNSATURATED ZONE =         -18669.63
       SATURATED ZONE =         -85687.22         SATURATED ZONE =          -3874.49

 OVERALL BUDGET ERROR =           -634.46           BUDGET ERROR =            -27.60


  PERCENT DISCREPANCY =             -0.09    PERCENT DISCREPANCY =             -0.05



1
 SUMMARY VOLUMETRIC BUDGET FOR GSFLOW 
 DATE: 10 28 1980              CUMULATIVE TIME STEP:      28
 MODFLOW STRESS PERIOD      2     CURRENT TIME STEP:      28     ITERATIONS:      11

 -----------------------------------------------------------------------------------

   CUMULATIVE VOLUMES               L**3   RATES FOR THIS TIME STEP           L**3/T
   ------------------                      ------------------------

                                     IN                                         IN
                                     --                                         --
        PRECIPITATION =         893052.32          PRECIPITATION =                  
           STREAMFLOW =                               STREAMFLOW =                  
     GW BOUNDARY FLOW =                         GW BOUNDARY FLOW =                  
                WELLS =             87.78                  WELLS =              0.38


                                    OUT                                        OUT
                                    ---                                        ---
   EVAPOTRANSPIRATION =         561606.82     EVAPOTRANSPIRATION =          26660.61
           STREAMFLOW =         180975.95             STREAMFLOW =           6927.86
     GW BOUNDARY FLOW =          20267.95       GW BOUNDARY FLOW =            723.77
                WELLS =          58701.16                  WELLS =           1929.81

   INFLOWS - OUTFLOWS =          71588.22     INFLOWS - OUTFLOWS =         -36241.68
             --------                                   --------

 TOTAL STORAGE CHANGE =          72409.52         STORAGE CHANGE =         -36215.56
       --------------                             --------------
         LAND SURFACE =          19525.56           LAND SURFACE =         -38596.10
            SOIL ZONE =         716473.32              SOIL ZONE =          25326.77
     UNSATURATED ZONE =        -543549.53       UNSATURATED ZONE =         -17894.11
       SATURATED ZONE =        -120039.82         SATURATED ZONE =          -5052.12

 OVERALL BUDGET ERROR =           -821.30           BUDGET ERROR =            -26.12


  PERCENT DISCREPANCY =             -0.09    PERCENT DISCREPANCY =             -0.07



1
 SUMMARY VOLUMETRIC BUDGET FOR GSFLOW 
 DATE: 11 04 1980              CUMULATIVE TIME STEP:      35
 MODFLOW STRESS PERIOD      2     CURRENT TIME STEP:      35     ITERATIONS:      11

 -----------------------------------------------------------------------------------

   CUMULATIVE VOLUMES               L**3   RATES FOR THIS TIME STEP           L**3/T
   ------------------                      ------------------------

                                     IN                                         IN
                                     --                                         --
        PRECIPITATION =         893052.32          PRECIPITATION =                  
           STREAMFLOW =                               STREAMFLOW =                  
     GW BOUNDARY FLOW =                         GW BOUNDARY FLOW =                  
                WELLS =            152.40                  WELLS =              0.38


                                    OUT                                        OUT
                                    ---                                        ---
   EVAPOTRANSPIRATION =         827880.39     EVAPOTRANSPIRATION =          40339.26
           STREAMFLOW =         227371.41             STREAMFLOW =           6258.46
     GW BOUNDARY FLOW =          25333.77       GW BOUNDARY FLOW =            723.62
                WELLS =          70198.92                  WELLS =           1860.14

   INFLOWS - OUTFLOWS =        -257579.77     INFLOWS - OUTFLOWS =         -49181.09
             --------                                   --------

 TOTAL STORAGE CHANGE =        -256582.70         STORAGE CHANGE =         -49156.60
       --------------                             --------------
         LAND SURFACE =                             LAND SURFACE =                  
            SOIL ZONE =         565626.97              SOIL ZONE =         -26372.13
     UNSATURATED ZONE =        -665848.02       UNSATURATED ZONE =         -17178.40
       SATURATED ZONE =        -156361.65         SATURATED ZONE =          -5606.08

 OVERALL BUDGET ERROR =           -997.07           BUDGET ERROR =            -24.48


  PERCENT DISCREPANCY =             -0.09    PERCENT DISCREPANCY =             -0.05



1
 SUMMARY VOLUMETRIC BUDGET FOR GSFLOW 
 DATE: 11 11 1980              CUMULATIVE TIME STEP:      42
 MODFLOW STRESS PERIOD      2     CURRENT TIME STEP:      42     ITERATIONS:      11

 -----------------------------------------------------------------------------------

   CUMULATIVE VOLUMES               L**3   RATES FOR THIS TIME STEP           L**3/T
   ------------------                      ------------------------

                                     IN                                         IN
                                     --                                         --
        PRECIPITATION =        1445195.46          PRECIPITATION =         164672.55
           STREAMFLOW =                               STREAMFLOW =                  
     GW BOUNDARY FLOW =                         GW BOUNDARY FLOW =                  
                WELLS =            155.08                  WELLS =              0.38


                                    OUT                                        OUT
                                    ---                                        ---
   EVAPOTRANSPIRATION =        1059956.68     EVAPOTRANSPIRATION =          16588.99
           STREAMFLOW =         281546.92             STREAMFLOW =           9090.74
     GW BOUNDARY FLOW =          30400.12       GW BOUNDARY FLOW =            723.93
                WELLS =          82733.94                  WELLS =           1789.90

   INFLOWS - OUTFLOWS =          -9287.12     INFLOWS - OUTFLOWS =         136479.38
             --------                                   --------

 TOTAL STORAGE CHANGE =          -8123.63         STORAGE CHANGE =         136502.66
       --------------                             --------------
         LAND SURFACE =          69010.13           LAND SURFACE =          66606.95
            SOIL ZONE =         901394.90              SOIL ZONE =          91917.63
     UNSATURATED ZONE =        -783334.64       UNSATURATED ZONE =         -16474.65
       SATURATED ZONE =        -195194.02         SATURATED ZONE =          -5547.28

 OVERALL BUDGET ERROR =          -1163.48           BUDGET ERROR =            -23.28


  PERCENT DISCREPANCY =             -0.08    PERCENT DISCREPANCY =             -0.01



1
 SUMMARY VOLUMETRIC BUDGET FOR GSFLOW 
 DATE: 11 18 1980              CUMULATIVE TIME STEP:      49
 MODFLOW STRESS PERIOD      2     CURRENT TIME STEP:      49     ITERATIONS:      17

 -----------------------------------------------------------------------------------

   CUMULATIVE VOLUMES               L**3   RATES FOR THIS TIME STEP           L**3/T
   ------------------                      ------------------------

                                     IN                                         IN
                                     --                                         --
        PRECIPITATION =        1527531.73          PRECIPITATION =                  
           STREAMFLOW =                               STREAMFLOW =                  
     GW BOUNDARY FLOW =                         GW BOUNDARY FLOW =                  
                WELLS =            189.99                  WELLS =             32.60


                                    OUT                                        OUT
                                    ---                                        ---
   EVAPOTRANSPIRATION =        1166891.14     EVAPOTRANSPIRATION =          23721.23
           STREAMFLOW =         341346.15             STREAMFLOW =           8674.35
     GW BOUNDARY FLOW =          35467.87       GW BOUNDARY FLOW =            723.97
                WELLS =          94677.54                  WELLS =           1375.73

   INFLOWS - OUTFLOWS =        -110660.97     INFLOWS - OUTFLOWS =         -34462.67
             --------                                   --------

 TOTAL STORAGE CHANGE =        -109340.24         STORAGE CHANGE =         -34440.95
       --------------                             --------------
         LAND SURFACE =            700.96           LAND SURFACE =          -5282.99
            SOIL ZONE =        1022328.82              SOIL ZONE =          -7595.31
     UNSATURATED ZONE =        -895917.28       UNSATURATED ZONE =         -15796.90
       SATURATED ZONE =        -236452.73         SATURATED ZONE =          -5765.75

 OVERALL BUDGET ERROR =          -1320.74           BUDGET ERROR =            -21.72


  PERCENT DISCREPANCY =             -0.08    PERCENT DISCREPANCY =             -0.06



1
 SUMMARY VOLUMETRIC BUDGET FOR GSFLOW 
 DATE: 11 25 1980              CUMULATIVE TIME STEP:      56
 MODFLOW STRESS PERIOD      2     CURRENT TIME STEP:      56     ITERATIONS:      11

 -----------------------------------------------------------------------------------

   CUMULATIVE VOLUMES               L**3   RATES FOR THIS TIME STEP           L**3/T
   ------------------                      ------------------------

                                     IN                                         IN
                                     --                                         --
        PRECIPITATION =        1583878.73          PRECIPITATION =                  
           STREAMFLOW =                               STREAMFLOW =                  
     GW BOUNDARY FLOW =                         GW BOUNDARY FLOW =                  
                WELLS =            336.54                  WELLS =             20.78


                                    OUT                                        OUT
                                    ---                                        ---
   EVAPOTRANSPIRATION =        1275822.57     EVAPOTRANSPIRATION =          12836.12
           STREAMFLOW =         400601.39             STREAMFLOW =           8436.60
     GW BOUNDARY FLOW =          40535.49       GW BOUNDARY FLOW =            723.93
                WELLS =         104181.88                  WELLS =           1346.19

   INFLOWS - OUTFLOWS =        -236926.07     INFLOWS - OUTFLOWS =         -23322.06
             --------                                   --------

 TOTAL STORAGE CHANGE =        -235457.68         STORAGE CHANGE =         -23301.46
       --------------                             --------------
         LAND SURFACE =          41331.51           LAND SURFACE =         -13376.93
            SOIL ZONE =        1006549.42              SOIL ZONE =          11574.18
     UNSATURATED ZONE =       -1004244.75       UNSATURATED ZONE =         -15206.77
       SATURATED ZONE =        -279093.86         SATURATED ZONE =          -6291.94

 OVERALL BUDGET ERROR =          -1468.39           BUDGET ERROR =            -20.60


  PERCENT DISCREPANCY =             -0.08    PERCENT DISCREPANCY =             -0.09



1
 SUMMARY VOLUMETRIC BUDGET FOR GSFLOW 
 DATE: 12 02 1980              CUMULATIVE TIME STEP:      63
 MODFLOW STRESS PERIOD      2     CURRENT TIME STEP:      63     ITERATIONS:      11

 -----------------------------------------------------------------------------------

   CUMULATIVE VOLUMES               L**3   RATES FOR THIS TIME STEP           L**3/T
   ------------------                      ------------------------

                                     IN                                         IN
                                     --                                         --
        PRECIPITATION =        2084797.03          PRECIPITATION =         217997.75
           STREAMFLOW =                               STREAMFLOW =                  
     GW BOUNDARY FLOW =                         GW BOUNDARY FLOW =                  
                WELLS =            484.73                  WELLS =             21.44


                                    OUT                                        OUT
                                    ---                                        ---
   EVAPOTRANSPIRATION =        1434257.14     EVAPOTRANSPIRATION =           9909.91
           STREAMFLOW =         470119.03             STREAMFLOW =          11698.40
     GW BOUNDARY FLOW =          45604.15       GW BOUNDARY FLOW =            724.35
                WELLS =         113512.17                  WELLS =           1323.65

   INFLOWS - OUTFLOWS =          21789.27     INFLOWS - OUTFLOWS =         194362.88
             --------                                   --------

 TOTAL STORAGE CHANGE =          23395.83         STORAGE CHANGE =         194382.03
       --------------                             --------------
         LAND SURFACE =         279295.42           LAND SURFACE =         190220.62
            SOIL ZONE =        1175779.33              SOIL ZONE =          25009.64
     UNSATURATED ZONE =       -1108099.92       UNSATURATED ZONE =         -14453.45
       SATURATED ZONE =        -323579.00         SATURATED ZONE =          -6394.78

 OVERALL BUDGET ERROR =          -1606.56           BUDGET ERROR =            -19.16


  PERCENT DISCREPANCY =             -0.08    PERCENT DISCREPANCY =             -0.01



1
 SUMMARY VOLUMETRIC BUDGET FOR GSFLOW 
 DATE: 12 09 1980              CUMULATIVE TIME STEP:      70
 MODFLOW STRESS PERIOD      2     CURRENT TIME STEP:      70     ITERATIONS:      11

 -----------------------------------------------------------------------------------

   CUMULATIVE VOLUMES               L**3   RATES FOR THIS TIME STEP           L**3/T
   ------------------                      ------------------------

                                     IN                                         IN
                                     --                                         --
        PRECIPITATION =        3709398.40          PRECIPITATION =                  
           STREAMFLOW =                               STREAMFLOW =                  
     GW BOUNDARY FLOW =                         GW BOUNDARY FLOW =                  
                WELLS =            637.12                  WELLS =             22.00


                                    OUT                                        OUT
                                    ---                                        ---
   EVAPOTRANSPIRATION =        1471519.53     EVAPOTRANSPIRATION =          12841.84
           STREAMFLOW =         551800.34             STREAMFLOW =          12118.28
     GW BOUNDARY FLOW =          50675.40       GW BOUNDARY FLOW =            724.55
                WELLS =         122702.75                  WELLS =           1305.43

   INFLOWS - OUTFLOWS =        1513337.49     INFLOWS - OUTFLOWS =         -26968.09
             --------                                   --------

 TOTAL STORAGE CHANGE =        1515073.26         STORAGE CHANGE =         -26950.10
       --------------                             --------------
         LAND SURFACE =        1866133.18           LAND SURFACE =         -12841.84
            SOIL ZONE =        1226182.31              SOIL ZONE =           6651.92
     UNSATURATED ZONE =       -1207274.89       UNSATURATED ZONE =         -13980.96
       SATURATED ZONE =        -369967.34         SATURATED ZONE =          -6779.22

 OVERALL BUDGET ERROR =          -1735.76           BUDGET ERROR =            -17.99


  PERCENT DISCREPANCY =             -0.05    PERCENT DISCREPANCY =             -0.07



1
 SUMMARY VOLUMETRIC BUDGET FOR GSFLOW 
 DATE: 12 16 1980              CUMULATIVE TIME STEP:      77
 MODFLOW STRESS PERIOD      2     CURRENT TIME STEP:      77     ITERATIONS:      11

 -----------------------------------------------------------------------------------

   CUMULATIVE VOLUMES               L**3   RATES FOR THIS TIME STEP           L**3/T
   ------------------                      ------------------------

                                     IN                                         IN
                                     --                                         --
        PRECIPITATION =        3709398.40          PRECIPITATION =                  
           STREAMFLOW =                               STREAMFLOW =                  
     GW BOUNDARY FLOW =                         GW BOUNDARY FLOW =                  
                WELLS =            792.99                  WELLS =             22.45


                                    OUT                                        OUT
                                    ---                                        ---
   EVAPOTRANSPIRATION =        1683980.15     EVAPOTRANSPIRATION =          45947.82
           STREAMFLOW =         692471.76             STREAMFLOW =          37205.21
     GW BOUNDARY FLOW =          55751.86       GW BOUNDARY FLOW =            726.60
                WELLS =         131779.37                  WELLS =           1290.53

   INFLOWS - OUTFLOWS =        1146208.25     INFLOWS - OUTFLOWS =         -85147.71
             --------                                   --------

 TOTAL STORAGE CHANGE =        1148067.28         STORAGE CHANGE =         -85130.46
       --------------                             --------------
         LAND SURFACE =        1097394.69           LAND SURFACE =        -242595.26
            SOIL ZONE =        1765170.82              SOIL ZONE =         174768.64
     UNSATURATED ZONE =       -1298428.23       UNSATURATED ZONE =         -11420.10
       SATURATED ZONE =        -416069.99         SATURATED ZONE =          -5883.74

 OVERALL BUDGET ERROR =          -1859.03           BUDGET ERROR =            -17.25


  PERCENT DISCREPANCY =             -0.05    PERCENT DISCREPANCY =             -0.02



1
 SUMMARY VOLUMETRIC BUDGET FOR GSFLOW 
 DATE: 12 23 1980              CUMULATIVE TIME STEP:      84
 MODFLOW STRESS PERIOD      2     CURRENT TIME STEP:      84     ITERATIONS:      12

 -----------------------------------------------------------------------------------

   CUMULATIVE VOLUMES               L**3   RATES FOR THIS TIME STEP           L**3/T
   ------------------                      ------------------------

                                     IN                                         IN
                                     --                                         --
        PRECIPITATION =        3709398.40          PRECIPITATION =                  
           STREAMFLOW =                               STREAMFLOW =                  
     GW BOUNDARY FLOW =                         GW BOUNDARY FLOW =                  
                WELLS =            951.65                  WELLS =             22.83


                                    OUT                                        OUT
                                    ---                                        ---
   EVAPOTRANSPIRATION =        1911606.96     EVAPOTRANSPIRATION =          32126.51
           STREAMFLOW =         946503.01             STREAMFLOW =          29813.51
     GW BOUNDARY FLOW =          60845.76       GW BOUNDARY FLOW =            727.59
                WELLS =         140762.28                  WELLS =           1278.09

   INFLOWS - OUTFLOWS =         650632.05     INFLOWS - OUTFLOWS =         -63922.88
             --------                                   --------

 TOTAL STORAGE CHANGE =         652606.02         STORAGE CHANGE =         -63907.10
       --------------                             --------------
         LAND SURFACE =         399376.50           LAND SURFACE =         -51279.29
            SOIL ZONE =        2087291.34              SOIL ZONE =           4804.16
     UNSATURATED ZONE =       -1371156.94       UNSATURATED ZONE =         -10257.94
       SATURATED ZONE =        -462904.88         SATURATED ZONE =          -7174.04

 OVERALL BUDGET ERROR =          -1973.97           BUDGET ERROR =            -15.78


  PERCENT DISCREPANCY =             -0.05    PERCENT DISCREPANCY =             -0.02



1
 SUMMARY VOLUMETRIC BUDGET FOR GSFLOW 
 DATE: 12 30 1980              CUMULATIVE TIME STEP:      91
 MODFLOW STRESS PERIOD      2     CURRENT TIME STEP:      91     ITERATIONS:      12

 -----------------------------------------------------------------------------------

   CUMULATIVE VOLUMES               L**3   RATES FOR THIS TIME STEP           L**3/T
   ------------------                      ------------------------

                                     IN                                         IN
                                     --                                         --
        PRECIPITATION =        3709398.40          PRECIPITATION =                  
           STREAMFLOW =                               STREAMFLOW =                  
     GW BOUNDARY FLOW =                         GW BOUNDARY FLOW =                  
                WELLS =           1124.96                  WELLS =             27.15


                                    OUT                                        OUT
                                    ---                                        ---
   EVAPOTRANSPIRATION =        2270547.81     EVAPOTRANSPIRATION =          56329.85
           STREAMFLOW =        1130063.98             STREAMFLOW =          20565.43
     GW BOUNDARY FLOW =          65935.39       GW BOUNDARY FLOW =            726.51
                WELLS =         148588.05                  WELLS =            909.06

   INFLOWS - OUTFLOWS =          95388.14     INFLOWS - OUTFLOWS =         -78503.71
             --------                                   --------

 TOTAL STORAGE CHANGE =          97466.06         STORAGE CHANGE =         -78489.43
       --------------                             --------------
         LAND SURFACE =          46840.62           LAND SURFACE =         -16420.20
            SOIL ZONE =        2006293.30              SOIL ZONE =         -44017.79
     UNSATURATED ZONE =       -1441446.24       UNSATURATED ZONE =         -10383.35
       SATURATED ZONE =        -514221.61         SATURATED ZONE =          -7668.10

 OVERALL BUDGET ERROR =          -2077.92           BUDGET ERROR =            -14.27


  PERCENT DISCREPANCY =             -0.06    PERCENT DISCREPANCY =             -0.02



1
 SUMMARY VOLUMETRIC BUDGET FOR GSFLOW 
 DATE: 01 06 1981              CUMULATIVE TIME STEP:      98
 MODFLOW STRESS PERIOD      2     CURRENT TIME STEP:      98     ITERATIONS:      11

 -----------------------------------------------------------------------------------

   CUMULATIVE VOLUMES               L**3   RATES FOR THIS TIME STEP           L**3/T
   ------------------                      ------------------------

                                     IN                                         IN
                                     --                                         --
        PRECIPITATION =        3929400.55          PRECIPITATION =                  
           STREAMFLOW =                               STREAMFLOW =                  
     GW BOUNDARY FLOW =                         GW BOUNDARY FLOW =                  
                WELLS =           1313.34                  WELLS =             26.62


                                    OUT                                        OUT
                                    ---                                        ---
   EVAPOTRANSPIRATION =        2546814.15     EVAPOTRANSPIRATION =          31283.68
           STREAMFLOW =        1249687.38             STREAMFLOW =          16820.28
     GW BOUNDARY FLOW =          71015.92       GW BOUNDARY FLOW =            725.61
                WELLS =         154925.94                  WELLS =            902.66

   INFLOWS - OUTFLOWS =         -91729.50     INFLOWS - OUTFLOWS =         -49705.62
             --------                                   --------

 TOTAL STORAGE CHANGE =         -89554.49         STORAGE CHANGE =         -49692.38
       --------------                             --------------
         LAND SURFACE =          32663.34           LAND SURFACE =         -26441.91
            SOIL ZONE =        1965480.83              SOIL ZONE =          -4319.05
     UNSATURATED ZONE =       -1518477.89       UNSATURATED ZONE =         -10903.72
       SATURATED ZONE =        -569220.77         SATURATED ZONE =          -8027.70

 OVERALL BUDGET ERROR =          -2175.01           BUDGET ERROR =            -13.24


  PERCENT DISCREPANCY =             -0.05    PERCENT DISCREPANCY =             -0.03



1
 SUMMARY VOLUMETRIC BUDGET FOR GSFLOW 
 DATE: 01 13 1981              CUMULATIVE TIME STEP:     105
 MODFLOW STRESS PERIOD      2     CURRENT TIME STEP:     105     ITERATIONS:      11

 -----------------------------------------------------------------------------------

   CUMULATIVE VOLUMES               L**3   RATES FOR THIS TIME STEP           L**3/T
   ------------------                      ------------------------

                                     IN                                         IN
                                     --                                         --
        PRECIPITATION =        3929400.55          PRECIPITATION =                  
           STREAMFLOW =                               STREAMFLOW =                  
     GW BOUNDARY FLOW =                         GW BOUNDARY FLOW =                  
                WELLS =           1496.98                  WELLS =             25.95


                                    OUT                                        OUT
                                    ---                                        ---
   EVAPOTRANSPIRATION =        2807532.11     EVAPOTRANSPIRATION =          39183.45
           STREAMFLOW =        1352234.07             STREAMFLOW =          12585.62
     GW BOUNDARY FLOW =          76093.09       GW BOUNDARY FLOW =            725.01
                WELLS =         161221.00                  WELLS =            896.87

   INFLOWS - OUTFLOWS =        -466182.73     INFLOWS - OUTFLOWS =         -53364.99
             --------                                   --------

 TOTAL STORAGE CHANGE =        -463918.83         STORAGE CHANGE =         -53352.60
       --------------                             --------------
         LAND SURFACE =          18261.21           LAND SURFACE =           -714.57
            SOIL ZONE =        1742307.01              SOIL ZONE =         -32652.67
     UNSATURATED ZONE =       -1596061.76       UNSATURATED ZONE =         -11242.15
       SATURATED ZONE =        -628425.30         SATURATED ZONE =          -8743.20

 OVERALL BUDGET ERROR =          -2263.91           BUDGET ERROR =            -12.40


  PERCENT DISCREPANCY =             -0.05    PERCENT DISCREPANCY =             -0.02



1
 SUMMARY VOLUMETRIC BUDGET FOR GSFLOW 
 DATE: 01 20 1981              CUMULATIVE TIME STEP:     112
 MODFLOW STRESS PERIOD      2     CURRENT TIME STEP:     112     ITERATIONS:      12

 -----------------------------------------------------------------------------------

   CUMULATIVE VOLUMES               L**3   RATES FOR THIS TIME STEP           L**3/T
   ------------------                      ------------------------

                                     IN                                         IN
                                     --                                         --
        PRECIPITATION =        3934797.64          PRECIPITATION =                  
           STREAMFLOW =                               STREAMFLOW =                  
     GW BOUNDARY FLOW =                         GW BOUNDARY FLOW =                  
                WELLS =           1676.13                  WELLS =             25.33


                                    OUT                                        OUT
                                    ---                                        ---
   EVAPOTRANSPIRATION =        3080464.05     EVAPOTRANSPIRATION =          41896.02
           STREAMFLOW =        1425177.30             STREAMFLOW =           9138.92
     GW BOUNDARY FLOW =          81165.78       GW BOUNDARY FLOW =            724.43
                WELLS =         167478.28                  WELLS =            891.76

   INFLOWS - OUTFLOWS =        -817811.65     INFLOWS - OUTFLOWS =         -52625.81
             --------                                   --------

 TOTAL STORAGE CHANGE =        -815463.93         STORAGE CHANGE =         -52614.17
       --------------                             --------------
         LAND SURFACE =          12470.36           LAND SURFACE =          -1499.07
            SOIL ZONE =        1537569.95              SOIL ZONE =         -30955.65
     UNSATURATED ZONE =       -1674080.93       UNSATURATED ZONE =         -11014.11
       SATURATED ZONE =        -691423.31         SATURATED ZONE =          -9145.34

 OVERALL BUDGET ERROR =          -2347.72           BUDGET ERROR =            -11.63


  PERCENT DISCREPANCY =             -0.05    PERCENT DISCREPANCY =             -0.02



1
 SUMMARY VOLUMETRIC BUDGET FOR GSFLOW 
 DATE: 01 27 1981              CUMULATIVE TIME STEP:     119
 MODFLOW STRESS PERIOD      2     CURRENT TIME STEP:     119     ITERATIONS:      12

 -----------------------------------------------------------------------------------

   CUMULATIVE VOLUMES               L**3   RATES FOR THIS TIME STEP           L**3/T
   ------------------                      ------------------------

                                     IN                                         IN
                                     --                                         --
        PRECIPITATION =        6080782.22          PRECIPITATION =        1101441.08
           STREAMFLOW =                               STREAMFLOW =                  
     GW BOUNDARY FLOW =                         GW BOUNDARY FLOW =                  
                WELLS =           1849.29                  WELLS =             23.90


                                    OUT                                        OUT
                                    ---                                        ---
   EVAPOTRANSPIRATION =        3234989.33     EVAPOTRANSPIRATION =          10796.47
           STREAMFLOW =        1498350.30             STREAMFLOW =          11293.03
     GW BOUNDARY FLOW =          86237.06       GW BOUNDARY FLOW =            724.56
                WELLS =         173702.90                  WELLS =            887.54

   INFLOWS - OUTFLOWS =        1089351.91     INFLOWS - OUTFLOWS =        1077763.38
             --------                                   --------

 TOTAL STORAGE CHANGE =        1091777.14         STORAGE CHANGE =        1077773.92
       --------------                             --------------
         LAND SURFACE =        1935714.63           LAND SURFACE =        1090644.60
            SOIL ZONE =        1660556.35              SOIL ZONE =           6870.69
     UNSATURATED ZONE =       -1748396.13       UNSATURATED ZONE =         -10415.44
       SATURATED ZONE =        -756097.71         SATURATED ZONE =          -9325.94

 OVERALL BUDGET ERROR =          -2425.23           BUDGET ERROR =            -10.54


  PERCENT DISCREPANCY =             -0.04    PERCENT DISCREPANCY =             -0.00



1
 SUMMARY VOLUMETRIC BUDGET FOR GSFLOW 
 DATE: 02 03 1981              CUMULATIVE TIME STEP:     126
 MODFLOW STRESS PERIOD      2     CURRENT TIME STEP:     126     ITERATIONS:      13

 -----------------------------------------------------------------------------------

   CUMULATIVE VOLUMES               L**3   RATES FOR THIS TIME STEP           L**3/T
   ------------------                      ------------------------

                                     IN                                         IN
                                     --                                         --
        PRECIPITATION =        8802115.43          PRECIPITATION =                  
           STREAMFLOW =                               STREAMFLOW =                  
     GW BOUNDARY FLOW =                         GW BOUNDARY FLOW =                  
                WELLS =           1999.45                  WELLS =              6.52


                                    OUT                                        OUT
                                    ---                                        ---
   EVAPOTRANSPIRATION =        3284009.74     EVAPOTRANSPIRATION =          13261.65
           STREAMFLOW =        1587387.87             STREAMFLOW =          13752.39
     GW BOUNDARY FLOW =          91310.23       GW BOUNDARY FLOW =            724.88
                WELLS =         182385.84                  WELLS =            810.32

   INFLOWS - OUTFLOWS =        3659021.20     INFLOWS - OUTFLOWS =         -28542.72
             --------                                   --------

 TOTAL STORAGE CHANGE =        3661516.18         STORAGE CHANGE =         -28533.20
       --------------                             --------------
         LAND SURFACE =        4608027.43           LAND SURFACE =         -13261.65
            SOIL ZONE =        1697468.61              SOIL ZONE =           4202.61
     UNSATURATED ZONE =       -1819801.21       UNSATURATED ZONE =         -10030.93
       SATURATED ZONE =        -824178.65         SATURATED ZONE =          -9443.24

 OVERALL BUDGET ERROR =          -2494.98           BUDGET ERROR =             -9.52


  PERCENT DISCREPANCY =             -0.03    PERCENT DISCREPANCY =             -0.03



1
 SUMMARY VOLUMETRIC BUDGET FOR GSFLOW 
 DATE: 02 10 1981              CUMULATIVE TIME STEP:     133
 MODFLOW STRESS PERIOD      2     CURRENT TIME STEP:     133     ITERATIONS:      12

 -----------------------------------------------------------------------------------

   CUMULATIVE VOLUMES               L**3   RATES FOR THIS TIME STEP           L**3/T
   ------------------                      ------------------------

                                     IN                                         IN
                                     --                                         --
        PRECIPITATION =        8811949.58          PRECIPITATION =                  
           STREAMFLOW =                               STREAMFLOW =                  
     GW BOUNDARY FLOW =                         GW BOUNDARY FLOW =                  
                WELLS =           2086.86                  WELLS =             12.79


                                    OUT                                        OUT
                                    ---                                        ---
   EVAPOTRANSPIRATION =        3392288.26     EVAPOTRANSPIRATION =          21067.61
           STREAMFLOW =        1690235.69             STREAMFLOW =          15209.24
     GW BOUNDARY FLOW =          96385.43       GW BOUNDARY FLOW =            725.11
                WELLS =         188029.50                  WELLS =            798.84

   INFLOWS - OUTFLOWS =        3447097.55     INFLOWS - OUTFLOWS =         -37788.01
             --------                                   --------

 TOTAL STORAGE CHANGE =        3449655.79         STORAGE CHANGE =         -37779.25
       --------------                             --------------
         LAND SURFACE =        4509583.05           LAND SURFACE =         -21067.61
            SOIL ZONE =        1720171.16              SOIL ZONE =           2703.65
     UNSATURATED ZONE =       -1888237.93       UNSATURATED ZONE =          -9590.06
       SATURATED ZONE =        -891860.49         SATURATED ZONE =          -9825.23

 OVERALL BUDGET ERROR =          -2558.24           BUDGET ERROR =             -8.77


  PERCENT DISCREPANCY =             -0.03    PERCENT DISCREPANCY =             -0.02



1
 SUMMARY VOLUMETRIC BUDGET FOR GSFLOW 
 DATE: 02 17 1981              CUMULATIVE TIME STEP:     140
 MODFLOW STRESS PERIOD      2     CURRENT TIME STEP:     140     ITERATIONS:      12

 -----------------------------------------------------------------------------------

   CUMULATIVE VOLUMES               L**3   RATES FOR THIS TIME STEP           L**3/T
   ------------------                      ------------------------

                                     IN                                         IN
                                     --                                         --
        PRECIPITATION =        1.0087D+07          PRECIPITATION =         108298.87
           STREAMFLOW =                               STREAMFLOW =                  
     GW BOUNDARY FLOW =                         GW BOUNDARY FLOW =                  
                WELLS =           2173.32                  WELLS =             15.33


                                    OUT                                        OUT
                                    ---                                        ---
   EVAPOTRANSPIRATION =        3676183.30     EVAPOTRANSPIRATION =          58727.23
           STREAMFLOW =        2255687.06             STREAMFLOW =         144719.59
     GW BOUNDARY FLOW =         101489.91       GW BOUNDARY FLOW =            733.86
                WELLS =         194557.64                  WELLS =           1271.07

   INFLOWS - OUTFLOWS =        3860862.56     INFLOWS - OUTFLOWS =         -97137.55
             --------                                   --------

 TOTAL STORAGE CHANGE =        3863483.82         STORAGE CHANGE =         -97128.74
       --------------                             --------------
         LAND SURFACE =        3727977.25           LAND SURFACE =        -273469.62
            SOIL ZONE =        2987743.12              SOIL ZONE =         176016.01
     UNSATURATED ZONE =       -1904914.21       UNSATURATED ZONE =           7257.07
       SATURATED ZONE =        -947322.34         SATURATED ZONE =          -6932.20

 OVERALL BUDGET ERROR =          -2621.26           BUDGET ERROR =             -8.81


  PERCENT DISCREPANCY =             -0.03    PERCENT DISCREPANCY =             -0.00



1
 SUMMARY VOLUMETRIC BUDGET FOR GSFLOW 
 DATE: 02 24 1981              CUMULATIVE TIME STEP:     147
 MODFLOW STRESS PERIOD      2     CURRENT TIME STEP:     147     ITERATIONS:      12

 -----------------------------------------------------------------------------------

   CUMULATIVE VOLUMES               L**3   RATES FOR THIS TIME STEP           L**3/T
   ------------------                      ------------------------

                                     IN                                         IN
                                     --                                         --
        PRECIPITATION =        1.0560D+07          PRECIPITATION =         473376.13
           STREAMFLOW =                               STREAMFLOW =                  
     GW BOUNDARY FLOW =                         GW BOUNDARY FLOW =                  
                WELLS =           2300.39                  WELLS =             18.86


                                    OUT                                        OUT
                                    ---                                        ---
   EVAPOTRANSPIRATION =        3996306.98     EVAPOTRANSPIRATION =          20787.25
           STREAMFLOW =        2997061.45             STREAMFLOW =         123037.63
     GW BOUNDARY FLOW =         106627.18       GW BOUNDARY FLOW =            733.98
                WELLS =         202598.05                  WELLS =            876.01

   INFLOWS - OUTFLOWS =        3259690.00     INFLOWS - OUTFLOWS =         327960.12
             --------                                   --------

 TOTAL STORAGE CHANGE =        3262366.85         STORAGE CHANGE =         327968.43
       --------------                             --------------
         LAND SURFACE =        3023506.06           LAND SURFACE =         234737.79
            SOIL ZONE =        3084358.34              SOIL ZONE =          89291.05
     UNSATURATED ZONE =       -1838744.15       UNSATURATED ZONE =          11386.58
       SATURATED ZONE =       -1006753.40         SATURATED ZONE =          -7446.99

 OVERALL BUDGET ERROR =          -2676.85           BUDGET ERROR =             -8.31


  PERCENT DISCREPANCY =             -0.03    PERCENT DISCREPANCY =             -0.00



1
 SUMMARY VOLUMETRIC BUDGET FOR GSFLOW 
 DATE: 03 03 1981              CUMULATIVE TIME STEP:     154
 MODFLOW STRESS PERIOD      2     CURRENT TIME STEP:     154     ITERATIONS:      12

 -----------------------------------------------------------------------------------

   CUMULATIVE VOLUMES               L**3   RATES FOR THIS TIME STEP           L**3/T
   ------------------                      ------------------------

                                     IN                                         IN
                                     --                                         --
        PRECIPITATION =        1.1273D+07          PRECIPITATION =                  
           STREAMFLOW =                               STREAMFLOW =                  
     GW BOUNDARY FLOW =                         GW BOUNDARY FLOW =                  
                WELLS =           2417.54                  WELLS =             24.23


                                    OUT                                        OUT
                                    ---                                        ---
   EVAPOTRANSPIRATION =        4113049.61     EVAPOTRANSPIRATION =          40276.78
           STREAMFLOW =        3371176.17             STREAMFLOW =          38823.06
     GW BOUNDARY FLOW =         111743.71       GW BOUNDARY FLOW =            729.11
                WELLS =         209626.24                  WELLS =            899.21

   INFLOWS - OUTFLOWS =        3470150.84     INFLOWS - OUTFLOWS =         -80703.92
             --------                                   --------

 TOTAL STORAGE CHANGE =        3472867.52         STORAGE CHANGE =         -80699.20
       --------------                             --------------
         LAND SURFACE =        3608151.34           LAND SURFACE =         -51855.94
            SOIL ZONE =        2738622.22              SOIL ZONE =         -21663.68
     UNSATURATED ZONE =       -1800309.42       UNSATURATED ZONE =           2254.01
       SATURATED ZONE =       -1073596.62         SATURATED ZONE =          -9433.59

 OVERALL BUDGET ERROR =          -2716.68           BUDGET ERROR =             -4.72


  PERCENT DISCREPANCY =             -0.02    PERCENT DISCREPANCY =             -0.01



1
 SUMMARY VOLUMETRIC BUDGET FOR GSFLOW 
 DATE: 03 10 1981              CUMULATIVE TIME STEP:     161
 MODFLOW STRESS PERIOD      2     CURRENT TIME STEP:     161     ITERATIONS:      12

 -----------------------------------------------------------------------------------

   CUMULATIVE VOLUMES               L**3   RATES FOR THIS TIME STEP           L**3/T
   ------------------                      ------------------------

                                     IN                                         IN
                                     --                                         --
        PRECIPITATION =        1.1273D+07          PRECIPITATION =                  
           STREAMFLOW =                               STREAMFLOW =                  
     GW BOUNDARY FLOW =                         GW BOUNDARY FLOW =                  
                WELLS =           2587.91                  WELLS =             27.69


                                    OUT                                        OUT
                                    ---                                        ---
   EVAPOTRANSPIRATION =        4386627.81     EVAPOTRANSPIRATION =          69354.51
           STREAMFLOW =        3716745.87             STREAMFLOW =          74873.15
     GW BOUNDARY FLOW =         116847.67       GW BOUNDARY FLOW =            730.59
                WELLS =         214782.46                  WELLS =            526.89

   INFLOWS - OUTFLOWS =        2840913.12     INFLOWS - OUTFLOWS =        -145457.45
             --------                                   --------

 TOTAL STORAGE CHANGE =        2843662.24         STORAGE CHANGE =        -145452.22
       --------------                             --------------
         LAND SURFACE =        2845840.99           LAND SURFACE =        -220175.79
            SOIL ZONE =        2909772.60              SOIL ZONE =          75583.30
     UNSATURATED ZONE =       -1776682.61       UNSATURATED ZONE =           6834.04
       SATURATED ZONE =       -1135268.74         SATURATED ZONE =          -7693.78

 OVERALL BUDGET ERROR =          -2749.12           BUDGET ERROR =             -5.22


  PERCENT DISCREPANCY =             -0.02    PERCENT DISCREPANCY =             -0.00



1
 SUMMARY VOLUMETRIC BUDGET FOR GSFLOW 
 DATE: 03 17 1981              CUMULATIVE TIME STEP:     168
 MODFLOW STRESS PERIOD      2     CURRENT TIME STEP:     168     ITERATIONS:      12

 -----------------------------------------------------------------------------------

   CUMULATIVE VOLUMES               L**3   RATES FOR THIS TIME STEP           L**3/T
   ------------------                      ------------------------

                                     IN                                         IN
                                     --                                         --
        PRECIPITATION =        1.1499D+07          PRECIPITATION =                  
           STREAMFLOW =                               STREAMFLOW =                  
     GW BOUNDARY FLOW =                         GW BOUNDARY FLOW =                  
                WELLS =           2778.07                  WELLS =             26.63


                                    OUT                                        OUT
                                    ---                                        ---
   EVAPOTRANSPIRATION =        4668716.34     EVAPOTRANSPIRATION =          29980.50
           STREAMFLOW =        4057262.71             STREAMFLOW =          31208.59
     GW BOUNDARY FLOW =         121957.08       GW BOUNDARY FLOW =            728.38
                WELLS =         218441.31                  WELLS =            519.58

   INFLOWS - OUTFLOWS =        2435800.36     INFLOWS - OUTFLOWS =         -62410.42
             --------                                   --------

 TOTAL STORAGE CHANGE =        2438574.83         STORAGE CHANGE =         -62407.92
       --------------                             --------------
         LAND SURFACE =        2718357.94           LAND SURFACE =         -29709.91
            SOIL ZONE =        2667482.92              SOIL ZONE =         -23536.94
     UNSATURATED ZONE =       -1747602.59       UNSATURATED ZONE =            558.60
       SATURATED ZONE =       -1199663.44         SATURATED ZONE =          -9719.67

 OVERALL BUDGET ERROR =          -2774.47           BUDGET ERROR =             -2.50


  PERCENT DISCREPANCY =             -0.02    PERCENT DISCREPANCY =             -0.00



1
 SUMMARY VOLUMETRIC BUDGET FOR GSFLOW 
 DATE: 03 24 1981              CUMULATIVE TIME STEP:     175
 MODFLOW STRESS PERIOD      2     CURRENT TIME STEP:     175     ITERATIONS:      12

 -----------------------------------------------------------------------------------

   CUMULATIVE VOLUMES               L**3   RATES FOR THIS TIME STEP           L**3/T
   ------------------                      ------------------------

                                     IN                                         IN
                                     --                                         --
        PRECIPITATION =        1.2888D+07          PRECIPITATION =                  
           STREAMFLOW =                               STREAMFLOW =                  
     GW BOUNDARY FLOW =                         GW BOUNDARY FLOW =                  
                WELLS =           2946.79                  WELLS =             24.39


                                    OUT                                        OUT
                                    ---                                        ---
   EVAPOTRANSPIRATION =        4916179.20     EVAPOTRANSPIRATION =          70526.45
           STREAMFLOW =        4256340.17             STREAMFLOW =          33762.68
     GW BOUNDARY FLOW =         127049.80       GW BOUNDARY FLOW =            727.48
                WELLS =         223833.46                  WELLS =            949.67

   INFLOWS - OUTFLOWS =        3367234.85     INFLOWS - OUTFLOWS =        -105941.89
             --------                                   --------

 TOTAL STORAGE CHANGE =        3370025.61         STORAGE CHANGE =        -105939.04
       --------------                             --------------
         LAND SURFACE =        3859792.29           LAND SURFACE =         -89828.78
            SOIL ZONE =        2542420.02              SOIL ZONE =          -3901.14
     UNSATURATED ZONE =       -1762926.80       UNSATURATED ZONE =          -2473.41
       SATURATED ZONE =       -1269259.90         SATURATED ZONE =          -9735.70

 OVERALL BUDGET ERROR =          -2790.76           BUDGET ERROR =             -2.86


  PERCENT DISCREPANCY =             -0.02    PERCENT DISCREPANCY =             -0.00



1
 SUMMARY VOLUMETRIC BUDGET FOR GSFLOW 
 DATE: 03 31 1981              CUMULATIVE TIME STEP:     182
 MODFLOW STRESS PERIOD      2     CURRENT TIME STEP:     182     ITERATIONS:      12

 -----------------------------------------------------------------------------------

   CUMULATIVE VOLUMES               L**3   RATES FOR THIS TIME STEP           L**3/T
   ------------------                      ------------------------

                                     IN                                         IN
                                     --                                         --
        PRECIPITATION =        1.4484D+07          PRECIPITATION =                  
           STREAMFLOW =                               STREAMFLOW =                  
     GW BOUNDARY FLOW =                         GW BOUNDARY FLOW =                  
                WELLS =           3116.02                  WELLS =             24.01


                                    OUT                                        OUT
                                    ---                                        ---
   EVAPOTRANSPIRATION =        5189865.93     EVAPOTRANSPIRATION =          24457.83
           STREAMFLOW =        4639764.71             STREAMFLOW =          38770.19
     GW BOUNDARY FLOW =         132156.02       GW BOUNDARY FLOW =            729.02
                WELLS =         230398.08                  WELLS =            929.68

   INFLOWS - OUTFLOWS =        4294508.79     INFLOWS - OUTFLOWS =         -64862.71
             --------                                   --------

 TOTAL STORAGE CHANGE =        4297316.39         STORAGE CHANGE =         -64860.65
       --------------                             --------------
         LAND SURFACE =        4685437.19           LAND SURFACE =         -24777.73
            SOIL ZONE =        2690415.72              SOIL ZONE =         -31516.41
     UNSATURATED ZONE =       -1742787.80       UNSATURATED ZONE =           1710.69
       SATURATED ZONE =       -1335748.71         SATURATED ZONE =         -10277.19

 OVERALL BUDGET ERROR =          -2807.60           BUDGET ERROR =             -2.06


  PERCENT DISCREPANCY =             -0.02    PERCENT DISCREPANCY =             -0.00



1
 SUMMARY VOLUMETRIC BUDGET FOR GSFLOW 
 DATE: 04 07 1981              CUMULATIVE TIME STEP:     189
 MODFLOW STRESS PERIOD      2     CURRENT TIME STEP:     189     ITERATIONS:      12

 -----------------------------------------------------------------------------------

   CUMULATIVE VOLUMES               L**3   RATES FOR THIS TIME STEP           L**3/T
   ------------------                      ------------------------

                                     IN                                         IN
                                     --                                         --
        PRECIPITATION =        1.4833D+07          PRECIPITATION =                  
           STREAMFLOW =                               STREAMFLOW =                  
     GW BOUNDARY FLOW =                         GW BOUNDARY FLOW =                  
                WELLS =           3282.57                  WELLS =             23.63


                                    OUT                                        OUT
                                    ---                                        ---
   EVAPOTRANSPIRATION =        5771789.61     EVAPOTRANSPIRATION =         124525.83
           STREAMFLOW =        5070500.82             STREAMFLOW =          79100.12
     GW BOUNDARY FLOW =         137265.15       GW BOUNDARY FLOW =            731.43
                WELLS =         236842.80                  WELLS =            914.54

   INFLOWS - OUTFLOWS =        3619578.61     INFLOWS - OUTFLOWS =        -205248.29
             --------                                   --------

 TOTAL STORAGE CHANGE =        3622405.59         STORAGE CHANGE =        -205245.05
       --------------                             --------------
         LAND SURFACE =        3942602.27           LAND SURFACE =        -234358.85
            SOIL ZONE =        2795573.80              SOIL ZONE =          30558.58
     UNSATURATED ZONE =       -1715342.80       UNSATURATED ZONE =           7406.69
       SATURATED ZONE =       -1400427.69         SATURATED ZONE =          -8851.47

 OVERALL BUDGET ERROR =          -2826.97           BUDGET ERROR =             -3.24


  PERCENT DISCREPANCY =             -0.02    PERCENT DISCREPANCY =             -0.00



1
 SUMMARY VOLUMETRIC BUDGET FOR GSFLOW 
 DATE: 04 14 1981              CUMULATIVE TIME STEP:     196
 MODFLOW STRESS PERIOD      2     CURRENT TIME STEP:     196     ITERATIONS:      12

 -----------------------------------------------------------------------------------

   CUMULATIVE VOLUMES               L**3   RATES FOR THIS TIME STEP           L**3/T
   ------------------                      ------------------------

                                     IN                                         IN
                                     --                                         --
        PRECIPITATION =        1.4833D+07          PRECIPITATION =                  
           STREAMFLOW =                               STREAMFLOW =                  
     GW BOUNDARY FLOW =                         GW BOUNDARY FLOW =                  
                WELLS =           3443.31                  WELLS =             22.82


                                    OUT                                        OUT
                                    ---                                        ---
   EVAPOTRANSPIRATION =        6581238.48     EVAPOTRANSPIRATION =         170582.13
           STREAMFLOW =        5612163.46             STREAMFLOW =          91710.94
     GW BOUNDARY FLOW =         142384.89       GW BOUNDARY FLOW =            731.91
                WELLS =         244497.22                  WELLS =           1327.25

   INFLOWS - OUTFLOWS =        2255853.68     INFLOWS - OUTFLOWS =        -264329.41
             --------                                   --------

 TOTAL STORAGE CHANGE =        2258698.88         STORAGE CHANGE =        -264326.62
       --------------                             --------------
         LAND SURFACE =        2550913.66           LAND SURFACE =        -280456.17
            SOIL ZONE =        2836403.18              SOIL ZONE =          16070.67
     UNSATURATED ZONE =       -1664204.21       UNSATURATED ZONE =           8766.24
       SATURATED ZONE =       -1464413.75         SATURATED ZONE =          -8707.36

 OVERALL BUDGET ERROR =          -2845.21           BUDGET ERROR =             -2.80


  PERCENT DISCREPANCY =             -0.02    PERCENT DISCREPANCY =             -0.00



1
 SUMMARY VOLUMETRIC BUDGET FOR GSFLOW 
 DATE: 04 21 1981              CUMULATIVE TIME STEP:     203
 MODFLOW STRESS PERIOD      2     CURRENT TIME STEP:     203     ITERATIONS:      12

 -----------------------------------------------------------------------------------

   CUMULATIVE VOLUMES               L**3   RATES FOR THIS TIME STEP           L**3/T
   ------------------                      ------------------------

                                     IN                                         IN
                                     --                                         --
        PRECIPITATION =        1.4976D+07          PRECIPITATION =                  
           STREAMFLOW =                               STREAMFLOW =                  
     GW BOUNDARY FLOW =                         GW BOUNDARY FLOW =                  
                WELLS =           3603.87                  WELLS =             23.01


                                    OUT                                        OUT
                                    ---                                        ---
   EVAPOTRANSPIRATION =        7558422.17     EVAPOTRANSPIRATION =         164993.93
           STREAMFLOW =        6139101.13             STREAMFLOW =          74794.77
     GW BOUNDARY FLOW =         147504.15       GW BOUNDARY FLOW =            730.79
                WELLS =         253657.85                  WELLS =           1296.23

   INFLOWS - OUTFLOWS =         881230.24     INFLOWS - OUTFLOWS =        -241792.71
             --------                                   --------

 TOTAL STORAGE CHANGE =         884087.52         STORAGE CHANGE =        -241791.27
       --------------                             --------------
         LAND SURFACE =        1345857.21           LAND SURFACE =        -142964.73
            SOIL ZONE =        2687609.77              SOIL ZONE =         -95068.70
     UNSATURATED ZONE =       -1618595.71       UNSATURATED ZONE =           5137.88
       SATURATED ZONE =       -1530783.75         SATURATED ZONE =          -8895.72

 OVERALL BUDGET ERROR =          -2857.28           BUDGET ERROR =             -1.44


  PERCENT DISCREPANCY =             -0.02    PERCENT DISCREPANCY =             -0.00



1
 SUMMARY VOLUMETRIC BUDGET FOR GSFLOW 
 DATE: 04 28 1981              CUMULATIVE TIME STEP:     210
 MODFLOW STRESS PERIOD      2     CURRENT TIME STEP:     210     ITERATIONS:      12

 -----------------------------------------------------------------------------------

   CUMULATIVE VOLUMES               L**3   RATES FOR THIS TIME STEP           L**3/T
   ------------------                      ------------------------

                                     IN                                         IN
                                     --                                         --
        PRECIPITATION =        1.5195D+07          PRECIPITATION =                  
           STREAMFLOW =                               STREAMFLOW =                  
     GW BOUNDARY FLOW =                         GW BOUNDARY FLOW =                  
                WELLS =           3765.54                  WELLS =             23.15


                                    OUT                                        OUT
                                    ---                                        ---
   EVAPOTRANSPIRATION =        8840317.76     EVAPOTRANSPIRATION =         212437.70
           STREAMFLOW =        6459350.02             STREAMFLOW =          39688.60
     GW BOUNDARY FLOW =         152606.75       GW BOUNDARY FLOW =            727.69
                WELLS =         262635.12                  WELLS =           1273.03

   INFLOWS - OUTFLOWS =        -516524.96     INFLOWS - OUTFLOWS =        -254103.87
             --------                                   --------

 TOTAL STORAGE CHANGE =        -513651.31         STORAGE CHANGE =        -254101.19
       --------------                             --------------
         LAND SURFACE =         618276.34           LAND SURFACE =         -78062.96
            SOIL ZONE =        2086905.99              SOIL ZONE =        -164978.09
     UNSATURATED ZONE =       -1614307.54       UNSATURATED ZONE =           -788.36
       SATURATED ZONE =       -1604526.10         SATURATED ZONE =         -10271.78

 OVERALL BUDGET ERROR =          -2873.65           BUDGET ERROR =             -2.68


  PERCENT DISCREPANCY =             -0.02    PERCENT DISCREPANCY =             -0.00



1
 SUMMARY VOLUMETRIC BUDGET FOR GSFLOW 
 DATE: 05 05 1981              CUMULATIVE TIME STEP:     217
 MODFLOW STRESS PERIOD      2     CURRENT TIME STEP:     217     ITERATIONS:      12

 -----------------------------------------------------------------------------------

   CUMULATIVE VOLUMES               L**3   RATES FOR THIS TIME STEP           L**3/T
   ------------------                      ------------------------

                                     IN                                         IN
                                     --                                         --
        PRECIPITATION =        1.5195D+07          PRECIPITATION =                  
           STREAMFLOW =                               STREAMFLOW =                  
     GW BOUNDARY FLOW =                         GW BOUNDARY FLOW =                  
                WELLS =           3887.22                  WELLS =             12.46


                                    OUT                                        OUT
                                    ---                                        ---
   EVAPOTRANSPIRATION =        9823390.94     EVAPOTRANSPIRATION =          53617.80
           STREAMFLOW =        6600800.44             STREAMFLOW =          11330.41
     GW BOUNDARY FLOW =         157687.88       GW BOUNDARY FLOW =            724.43
                WELLS =         270031.10                  WELLS =            778.43

   INFLOWS - OUTFLOWS =       -1653403.99     INFLOWS - OUTFLOWS =         -66438.61
             --------                                   --------

 TOTAL STORAGE CHANGE =       -1650503.38         STORAGE CHANGE =         -66434.42
       --------------                             --------------
         LAND SURFACE =         302362.50           LAND SURFACE =          -6705.26
            SOIL ZONE =        1378191.37              SOIL ZONE =         -42017.61
     UNSATURATED ZONE =       -1647200.82       UNSATURATED ZONE =          -6364.94
       SATURATED ZONE =       -1683856.44         SATURATED ZONE =         -11346.60

 OVERALL BUDGET ERROR =          -2900.60           BUDGET ERROR =             -4.19


  PERCENT DISCREPANCY =             -0.02    PERCENT DISCREPANCY =             -0.01



1
 SUMMARY VOLUMETRIC BUDGET FOR GSFLOW 
 DATE: 05 12 1981              CUMULATIVE TIME STEP:     224
 MODFLOW STRESS PERIOD      2     CURRENT TIME STEP:     224     ITERATIONS:      12

 -----------------------------------------------------------------------------------

   CUMULATIVE VOLUMES               L**3   RATES FOR THIS TIME STEP           L**3/T
   ------------------                      ------------------------

                                     IN                                         IN
                                     --                                         --
        PRECIPITATION =        1.5195D+07          PRECIPITATION =                  
           STREAMFLOW =                               STREAMFLOW =                  
     GW BOUNDARY FLOW =                         GW BOUNDARY FLOW =                  
                WELLS =           3976.51                  WELLS =             12.42


                                    OUT                                        OUT
                                    ---                                        ---
   EVAPOTRANSPIRATION =        1.0342D+07     EVAPOTRANSPIRATION =          89964.03
           STREAMFLOW =        6672519.68             STREAMFLOW =          10557.91
     GW BOUNDARY FLOW =         162753.25       GW BOUNDARY FLOW =            723.36
                WELLS =         275432.11                  WELLS =            766.21

   INFLOWS - OUTFLOWS =       -2254066.61     INFLOWS - OUTFLOWS =        -101999.08
             --------                                   --------

 TOTAL STORAGE CHANGE =       -2251136.14         STORAGE CHANGE =        -101994.83
       --------------                             --------------
         LAND SURFACE =         173455.74           LAND SURFACE =         -24893.99
            SOIL ZONE =        1031558.57              SOIL ZONE =         -59266.17
     UNSATURATED ZONE =       -1693069.50       UNSATURATED ZONE =          -6317.55
       SATURATED ZONE =       -1763080.96         SATURATED ZONE =         -11517.12

 OVERALL BUDGET ERROR =          -2930.47           BUDGET ERROR =             -4.25


  PERCENT DISCREPANCY =             -0.02    PERCENT DISCREPANCY =             -0.00



1
 SUMMARY VOLUMETRIC BUDGET FOR GSFLOW 
 DATE: 05 19 1981              CUMULATIVE TIME STEP:     231
 MODFLOW STRESS PERIOD      2     CURRENT TIME STEP:     231     ITERATIONS:      12

 -----------------------------------------------------------------------------------

   CUMULATIVE VOLUMES               L**3   RATES FOR THIS TIME STEP           L**3/T
   ------------------                      ------------------------

                                     IN                                         IN
                                     --                                         --
        PRECIPITATION =        1.6217D+07          PRECIPITATION =         339612.76
           STREAMFLOW =                               STREAMFLOW =                  
     GW BOUNDARY FLOW =                         GW BOUNDARY FLOW =                  
                WELLS =           4076.28                  WELLS =             15.47


                                    OUT                                        OUT
                                    ---                                        ---
   EVAPOTRANSPIRATION =        1.0680D+07     EVAPOTRANSPIRATION =          28295.02
           STREAMFLOW =        6761871.92             STREAMFLOW =          16289.00
     GW BOUNDARY FLOW =         167816.70       GW BOUNDARY FLOW =            723.81
                WELLS =         279321.93                  WELLS =            399.55

   INFLOWS - OUTFLOWS =       -1668629.39     INFLOWS - OUTFLOWS =         293920.86
             --------                                   --------

 TOTAL STORAGE CHANGE =       -1665668.49         STORAGE CHANGE =         293924.99
       --------------                             --------------
         LAND SURFACE =         345387.90           LAND SURFACE =         162072.28
            SOIL ZONE =        1565730.14              SOIL ZONE =         148280.71
     UNSATURATED ZONE =       -1733805.85       UNSATURATED ZONE =          -5013.69
       SATURATED ZONE =       -1842980.68         SATURATED ZONE =         -11414.31

 OVERALL BUDGET ERROR =          -2960.90           BUDGET ERROR =             -4.14


  PERCENT DISCREPANCY =             -0.02    PERCENT DISCREPANCY =             -0.00



1
 SUMMARY VOLUMETRIC BUDGET FOR GSFLOW 
 DATE: 05 26 1981              CUMULATIVE TIME STEP:     238
 MODFLOW STRESS PERIOD      2     CURRENT TIME STEP:     238     ITERATIONS:      12

 -----------------------------------------------------------------------------------

   CUMULATIVE VOLUMES               L**3   RATES FOR THIS TIME STEP           L**3/T
   ------------------                      ------------------------

                                     IN                                         IN
                                     --                                         --
        PRECIPITATION =        1.6608D+07          PRECIPITATION =         171546.23
           STREAMFLOW =                               STREAMFLOW =                  
     GW BOUNDARY FLOW =                         GW BOUNDARY FLOW =                  
                WELLS =           4153.90                  WELLS =              5.98


                                    OUT                                        OUT
                                    ---                                        ---
   EVAPOTRANSPIRATION =        1.1379D+07     EVAPOTRANSPIRATION =         111893.78
           STREAMFLOW =        6864349.18             STREAMFLOW =          17304.08
     GW BOUNDARY FLOW =         172881.84       GW BOUNDARY FLOW =            723.66
                WELLS =         283568.70                  WELLS =            920.23

   INFLOWS - OUTFLOWS =       -2087927.85     INFLOWS - OUTFLOWS =          40710.46
             --------                                   --------

 TOTAL STORAGE CHANGE =       -2084938.47         STORAGE CHANGE =          40714.53
       --------------                             --------------
         LAND SURFACE =         119128.67           LAND SURFACE =          -6048.51
            SOIL ZONE =        1487517.47              SOIL ZONE =          63228.19
     UNSATURATED ZONE =       -1765801.19       UNSATURATED ZONE =          -4378.46
       SATURATED ZONE =       -1925783.42         SATURATED ZONE =         -12086.69

 OVERALL BUDGET ERROR =          -2989.38           BUDGET ERROR =             -4.07


  PERCENT DISCREPANCY =             -0.02    PERCENT DISCREPANCY =             -0.00



1
 SUMMARY VOLUMETRIC BUDGET FOR GSFLOW 
 DATE: 06 02 1981              CUMULATIVE TIME STEP:     245
 MODFLOW STRESS PERIOD      2     CURRENT TIME STEP:     245     ITERATIONS:      12

 -----------------------------------------------------------------------------------

   CUMULATIVE VOLUMES               L**3   RATES FOR THIS TIME STEP           L**3/T
   ------------------                      ------------------------

                                     IN                                         IN
                                     --                                         --
        PRECIPITATION =        1.6690D+07          PRECIPITATION =                  
           STREAMFLOW =                               STREAMFLOW =                  
     GW BOUNDARY FLOW =                         GW BOUNDARY FLOW =                  
                WELLS =           4188.24                  WELLS =              4.16


                                    OUT                                        OUT
                                    ---                                        ---
   EVAPOTRANSPIRATION =        1.2141D+07     EVAPOTRANSPIRATION =          68468.62
           STREAMFLOW =        6940284.59             STREAMFLOW =           7061.45
     GW BOUNDARY FLOW =         177943.12       GW BOUNDARY FLOW =            722.35
                WELLS =         289895.53                  WELLS =            893.01

   INFLOWS - OUTFLOWS =       -2855090.28     INFLOWS - OUTFLOWS =         -77141.27
             --------                                   --------

 TOTAL STORAGE CHANGE =       -2852072.87         STORAGE CHANGE =         -77137.00
       --------------                             --------------
         LAND SURFACE =          30075.22           LAND SURFACE =          -3869.27
            SOIL ZONE =         934234.61              SOIL ZONE =         -54137.24
     UNSATURATED ZONE =       -1801317.48       UNSATURATED ZONE =          -6065.15
       SATURATED ZONE =       -2015065.23         SATURATED ZONE =         -13065.33

 OVERALL BUDGET ERROR =          -3017.41           BUDGET ERROR =             -4.27


  PERCENT DISCREPANCY =             -0.02    PERCENT DISCREPANCY =             -0.01



1
 SUMMARY VOLUMETRIC BUDGET FOR GSFLOW 
 DATE: 06 09 1981              CUMULATIVE TIME STEP:     252
 MODFLOW STRESS PERIOD      2     CURRENT TIME STEP:     252     ITERATIONS:      12

 -----------------------------------------------------------------------------------

   CUMULATIVE VOLUMES               L**3   RATES FOR THIS TIME STEP           L**3/T
   ------------------                      ------------------------

                                     IN                                         IN
                                     --                                         --
        PRECIPITATION =        1.6690D+07          PRECIPITATION =                  
           STREAMFLOW =                               STREAMFLOW =                  
     GW BOUNDARY FLOW =                         GW BOUNDARY FLOW =                  
[...]
   ------------------                      ------------------------

                                     IN                                         IN
                                     --                                         --
        PRECIPITATION =        1.2601D+08          PRECIPITATION =                  
           STREAMFLOW =                               STREAMFLOW =                  
     GW BOUNDARY FLOW =                         GW BOUNDARY FLOW =                  
                WELLS =          22957.26                  WELLS =             12.37


                                    OUT                                        OUT
                                    ---                                        ---
   EVAPOTRANSPIRATION =        5.9661D+07     EVAPOTRANSPIRATION =           5897.29
           STREAMFLOW =        6.2054D+07             STREAMFLOW =          16933.73
     GW BOUNDARY FLOW =         836228.27       GW BOUNDARY FLOW =            719.92
                WELLS =        1023925.58                  WELLS =            430.71

   INFLOWS - OUTFLOWS =        2452106.68     INFLOWS - OUTFLOWS =         -23969.29
             --------                                   --------

 TOTAL STORAGE CHANGE =        2456221.46         STORAGE CHANGE =         -23969.18
       --------------                             --------------
         LAND SURFACE =        1.0804D+07           LAND SURFACE =          -5896.95
            SOIL ZONE =        2497550.70              SOIL ZONE =          -9330.63
     UNSATURATED ZONE =         400620.16       UNSATURATED ZONE =           -220.53
       SATURATED ZONE =       -1.1246D+07         SATURATED ZONE =          -8521.08

 OVERALL BUDGET ERROR =          -4114.78           BUDGET ERROR =             -0.11


  PERCENT DISCREPANCY =             -0.00    PERCENT DISCREPANCY =             -0.00



1
 SUMMARY VOLUMETRIC BUDGET FOR GSFLOW 
 DATE: 12 06 1983              CUMULATIVE TIME STEP:    1162
 MODFLOW STRESS PERIOD      2     CURRENT TIME STEP:    1162     ITERATIONS:       8

 -----------------------------------------------------------------------------------

   CUMULATIVE VOLUMES               L**3   RATES FOR THIS TIME STEP           L**3/T
   ------------------                      ------------------------

                                     IN                                         IN
                                     --                                         --
        PRECIPITATION =        1.2771D+08          PRECIPITATION =                  
           STREAMFLOW =                               STREAMFLOW =                  
     GW BOUNDARY FLOW =                         GW BOUNDARY FLOW =                  
                WELLS =          23023.99                  WELLS =              4.44


                                    OUT                                        OUT
                                    ---                                        ---
   EVAPOTRANSPIRATION =        5.9727D+07     EVAPOTRANSPIRATION =           3263.01
           STREAMFLOW =        6.2162D+07             STREAMFLOW =          14622.58
     GW BOUNDARY FLOW =         841265.64       GW BOUNDARY FLOW =            719.49
                WELLS =        1026889.69                  WELLS =            419.95

   INFLOWS - OUTFLOWS =        3975576.43     INFLOWS - OUTFLOWS =         -19020.59
             --------                                   --------

 TOTAL STORAGE CHANGE =        3979689.59         STORAGE CHANGE =         -19020.77
       --------------                             --------------
         LAND SURFACE =        1.2443D+07           LAND SURFACE =          -3262.97
            SOIL ZONE =        2452232.79              SOIL ZONE =          -4839.12
     UNSATURATED ZONE =         390692.89       UNSATURATED ZONE =          -2129.94
       SATURATED ZONE =       -1.1306D+07         SATURATED ZONE =          -8788.74

 OVERALL BUDGET ERROR =          -4113.16           BUDGET ERROR =              0.18


  PERCENT DISCREPANCY =             -0.00    PERCENT DISCREPANCY =              0.00



1
 SUMMARY VOLUMETRIC BUDGET FOR GSFLOW 
 DATE: 12 13 1983              CUMULATIVE TIME STEP:    1169
 MODFLOW STRESS PERIOD      2     CURRENT TIME STEP:    1169     ITERATIONS:       8

 -----------------------------------------------------------------------------------

   CUMULATIVE VOLUMES               L**3   RATES FOR THIS TIME STEP           L**3/T
   ------------------                      ------------------------

                                     IN                                         IN
                                     --                                         --
        PRECIPITATION =        1.3066D+08          PRECIPITATION =          48887.43
           STREAMFLOW =                               STREAMFLOW =                  
     GW BOUNDARY FLOW =                         GW BOUNDARY FLOW =                  
                WELLS =          23190.48                  WELLS =             24.83


                                    OUT                                        OUT
                                    ---                                        ---
   EVAPOTRANSPIRATION =        5.9790D+07     EVAPOTRANSPIRATION =           7752.49
           STREAMFLOW =        6.2259D+07             STREAMFLOW =          13482.36
     GW BOUNDARY FLOW =         846300.30       GW BOUNDARY FLOW =            719.06
                WELLS =        1036333.41                  WELLS =           1323.80

   INFLOWS - OUTFLOWS =        6756393.38     INFLOWS - OUTFLOWS =          25634.54
             --------                                   --------

 TOTAL STORAGE CHANGE =        6760507.61         STORAGE CHANGE =          25634.88
       --------------                             --------------
         LAND SURFACE =        1.5335D+07           LAND SURFACE =          41134.93
            SOIL ZONE =        2429412.76              SOIL ZONE =          -2346.70
     UNSATURATED ZONE =         370546.05       UNSATURATED ZONE =          -3345.97
       SATURATED ZONE =       -1.1375D+07         SATURATED ZONE =          -9807.38

 OVERALL BUDGET ERROR =          -4114.22           BUDGET ERROR =             -0.34


  PERCENT DISCREPANCY =             -0.00    PERCENT DISCREPANCY =             -0.00



1
 SUMMARY VOLUMETRIC BUDGET FOR GSFLOW 
 DATE: 12 20 1983              CUMULATIVE TIME STEP:    1176
 MODFLOW STRESS PERIOD      2     CURRENT TIME STEP:    1176     ITERATIONS:       8

 -----------------------------------------------------------------------------------

   CUMULATIVE VOLUMES               L**3   RATES FOR THIS TIME STEP           L**3/T
   ------------------                      ------------------------

                                     IN                                         IN
                                     --                                         --
        PRECIPITATION =        1.3124D+08          PRECIPITATION =                  
           STREAMFLOW =                               STREAMFLOW =                  
     GW BOUNDARY FLOW =                         GW BOUNDARY FLOW =                  
                WELLS =          23363.80                  WELLS =             24.70


                                    OUT                                        OUT
                                    ---                                        ---
   EVAPOTRANSPIRATION =        5.9944D+07     EVAPOTRANSPIRATION =          22980.76
           STREAMFLOW =        6.2359D+07             STREAMFLOW =          13937.62
     GW BOUNDARY FLOW =         851333.09       GW BOUNDARY FLOW =            718.90
                WELLS =        1045450.28                  WELLS =           1287.87

   INFLOWS - OUTFLOWS =        7062045.28     INFLOWS - OUTFLOWS =         -38900.45
             --------                                   --------

 TOTAL STORAGE CHANGE =        7066166.28         STORAGE CHANGE =         -38898.99
       --------------                             --------------
         LAND SURFACE =        1.5733D+07           LAND SURFACE =         -23386.49
            SOIL ZONE =        2430970.83              SOIL ZONE =          -1890.30
     UNSATURATED ZONE =         345276.05       UNSATURATED ZONE =          -3845.64
       SATURATED ZONE =       -1.1443D+07         SATURATED ZONE =          -9776.56

 OVERALL BUDGET ERROR =          -4121.00           BUDGET ERROR =             -1.46


  PERCENT DISCREPANCY =             -0.00    PERCENT DISCREPANCY =             -0.00



1
 SUMMARY VOLUMETRIC BUDGET FOR GSFLOW 
 DATE: 12 27 1983              CUMULATIVE TIME STEP:    1183
 MODFLOW STRESS PERIOD      2     CURRENT TIME STEP:    1183     ITERATIONS:       9

 -----------------------------------------------------------------------------------

   CUMULATIVE VOLUMES               L**3   RATES FOR THIS TIME STEP           L**3/T
   ------------------                      ------------------------

                                     IN                                         IN
                                     --                                         --
        PRECIPITATION =        1.3494D+08          PRECIPITATION =         350323.53
           STREAMFLOW =                               STREAMFLOW =                  
     GW BOUNDARY FLOW =                         GW BOUNDARY FLOW =                  
                WELLS =          23538.21                  WELLS =             25.33


                                    OUT                                        OUT
                                    ---                                        ---
   EVAPOTRANSPIRATION =        5.9996D+07     EVAPOTRANSPIRATION =           9465.25
           STREAMFLOW =        6.2452D+07             STREAMFLOW =          13083.85
     GW BOUNDARY FLOW =         856364.29       GW BOUNDARY FLOW =            718.61
                WELLS =        1053605.12                  WELLS =            887.77

   INFLOWS - OUTFLOWS =        1.0602D+07     INFLOWS - OUTFLOWS =         326193.37
             --------                                   --------

 TOTAL STORAGE CHANGE =        1.0606D+07         STORAGE CHANGE =         326194.74
       --------------                             --------------
         LAND SURFACE =        1.9380D+07           LAND SURFACE =         340858.28
            SOIL ZONE =        2420846.38              SOIL ZONE =          -1025.63
     UNSATURATED ZONE =         317215.76       UNSATURATED ZONE =          -4078.22
       SATURATED ZONE =       -1.1511D+07         SATURATED ZONE =          -9559.70

 OVERALL BUDGET ERROR =          -4130.58           BUDGET ERROR =             -1.37


  PERCENT DISCREPANCY =             -0.00    PERCENT DISCREPANCY =             -0.00



1
 SUMMARY VOLUMETRIC BUDGET FOR GSFLOW 
 DATE: 01 03 1984              CUMULATIVE TIME STEP:    1190
 MODFLOW STRESS PERIOD      2     CURRENT TIME STEP:    1190     ITERATIONS:       9

 -----------------------------------------------------------------------------------

   CUMULATIVE VOLUMES               L**3   RATES FOR THIS TIME STEP           L**3/T
   ------------------                      ------------------------

                                     IN                                         IN
                                     --                                         --
        PRECIPITATION =        1.3595D+08          PRECIPITATION =                  
           STREAMFLOW =                               STREAMFLOW =                  
     GW BOUNDARY FLOW =                         GW BOUNDARY FLOW =                  
                WELLS =          23717.77                  WELLS =             25.26


                                    OUT                                        OUT
                                    ---                                        ---
   EVAPOTRANSPIRATION =        6.0130D+07     EVAPOTRANSPIRATION =          25079.40
           STREAMFLOW =        6.2557D+07             STREAMFLOW =          15014.22
     GW BOUNDARY FLOW =         861395.07       GW BOUNDARY FLOW =            718.69
                WELLS =        1059761.97                  WELLS =            872.98

   INFLOWS - OUTFLOWS =        1.1369D+07     INFLOWS - OUTFLOWS =         -41660.03
             --------                                   --------

 TOTAL STORAGE CHANGE =        1.1373D+07         STORAGE CHANGE =         -41658.84
       --------------                             --------------
         LAND SURFACE =        2.0214D+07           LAND SURFACE =         -27577.06
            SOIL ZONE =        2442239.02              SOIL ZONE =          -1663.29
     UNSATURATED ZONE =         293809.20       UNSATURATED ZONE =          -2928.28
       SATURATED ZONE =       -1.1578D+07         SATURATED ZONE =          -9490.22

 OVERALL BUDGET ERROR =          -4140.03           BUDGET ERROR =             -1.19


  PERCENT DISCREPANCY =             -0.00    PERCENT DISCREPANCY =             -0.00



1
 SUMMARY VOLUMETRIC BUDGET FOR GSFLOW 
 DATE: 01 10 1984              CUMULATIVE TIME STEP:    1197
 MODFLOW STRESS PERIOD      2     CURRENT TIME STEP:    1197     ITERATIONS:       9

 -----------------------------------------------------------------------------------

   CUMULATIVE VOLUMES               L**3   RATES FOR THIS TIME STEP           L**3/T
   ------------------                      ------------------------

                                     IN                                         IN
                                     --                                         --
        PRECIPITATION =        1.3595D+08          PRECIPITATION =                  
           STREAMFLOW =                               STREAMFLOW =                  
     GW BOUNDARY FLOW =                         GW BOUNDARY FLOW =                  
                WELLS =          23927.12                  WELLS =             29.51


                                    OUT                                        OUT
                                    ---                                        ---
   EVAPOTRANSPIRATION =        6.0399D+07     EVAPOTRANSPIRATION =          23534.52
           STREAMFLOW =        6.2800D+07             STREAMFLOW =          37420.51
     GW BOUNDARY FLOW =         866438.49       GW BOUNDARY FLOW =            721.57
                WELLS =        1063328.46                  WELLS =            507.65

   INFLOWS - OUTFLOWS =        1.0849D+07     INFLOWS - OUTFLOWS =         -62154.74
             --------                                   --------

 TOTAL STORAGE CHANGE =        1.0853D+07         STORAGE CHANGE =         -62153.87
       --------------                             --------------
         LAND SURFACE =        1.9462D+07           LAND SURFACE =         -32916.63
            SOIL ZONE =        2702434.88              SOIL ZONE =         -28079.87
     UNSATURATED ZONE =         322712.75       UNSATURATED ZONE =           7276.26
       SATURATED ZONE =       -1.1634D+07         SATURATED ZONE =          -8433.63

 OVERALL BUDGET ERROR =          -4149.13           BUDGET ERROR =             -0.87


  PERCENT DISCREPANCY =             -0.00    PERCENT DISCREPANCY =             -0.00



1
 SUMMARY VOLUMETRIC BUDGET FOR GSFLOW 
 DATE: 01 17 1984              CUMULATIVE TIME STEP:    1204
 MODFLOW STRESS PERIOD      2     CURRENT TIME STEP:    1204     ITERATIONS:      10

 -----------------------------------------------------------------------------------

   CUMULATIVE VOLUMES               L**3   RATES FOR THIS TIME STEP           L**3/T
   ------------------                      ------------------------

                                     IN                                         IN
                                     --                                         --
        PRECIPITATION =        1.3620D+08          PRECIPITATION =                  
           STREAMFLOW =                               STREAMFLOW =                  
     GW BOUNDARY FLOW =                         GW BOUNDARY FLOW =                  
                WELLS =          24127.92                  WELLS =             28.08


                                    OUT                                        OUT
                                    ---                                        ---
   EVAPOTRANSPIRATION =        6.0439D+07     EVAPOTRANSPIRATION =           1907.94
           STREAMFLOW =        6.2976D+07             STREAMFLOW =          20029.86
     GW BOUNDARY FLOW =         871481.41       GW BOUNDARY FLOW =            719.62
                WELLS =        1066864.10                  WELLS =            503.27

   INFLOWS - OUTFLOWS =        1.0870D+07     INFLOWS - OUTFLOWS =         -23132.61
             --------                                   --------

 TOTAL STORAGE CHANGE =        1.0874D+07         STORAGE CHANGE =         -23132.75
       --------------                             --------------
         LAND SURFACE =        1.9669D+07           LAND SURFACE =          -1907.77
            SOIL ZONE =        2547741.12              SOIL ZONE =         -14959.30
     UNSATURATED ZONE =         353267.54       UNSATURATED ZONE =           2522.83
       SATURATED ZONE =       -1.1695D+07         SATURATED ZONE =          -8788.52

 OVERALL BUDGET ERROR =          -4150.84           BUDGET ERROR =              0.14


  PERCENT DISCREPANCY =             -0.00    PERCENT DISCREPANCY =              0.00



1
 SUMMARY VOLUMETRIC BUDGET FOR GSFLOW 
 DATE: 01 24 1984              CUMULATIVE TIME STEP:    1211
 MODFLOW STRESS PERIOD      2     CURRENT TIME STEP:    1211     ITERATIONS:      10

 -----------------------------------------------------------------------------------

   CUMULATIVE VOLUMES               L**3   RATES FOR THIS TIME STEP           L**3/T
   ------------------                      ------------------------

                                     IN                                         IN
                                     --                                         --
        PRECIPITATION =        1.3620D+08          PRECIPITATION =                  
           STREAMFLOW =                               STREAMFLOW =                  
     GW BOUNDARY FLOW =                         GW BOUNDARY FLOW =                  
                WELLS =          24315.48                  WELLS =             26.54


                                    OUT                                        OUT
                                    ---                                        ---
   EVAPOTRANSPIRATION =        6.0566D+07     EVAPOTRANSPIRATION =          38332.83
           STREAMFLOW =        6.3096D+07             STREAMFLOW =          15545.27
     GW BOUNDARY FLOW =         876514.71       GW BOUNDARY FLOW =            718.74
                WELLS =        1070371.93                  WELLS =            499.35

   INFLOWS - OUTFLOWS =        1.0615D+07     INFLOWS - OUTFLOWS =         -55069.65
             --------                                   --------

 TOTAL STORAGE CHANGE =        1.0620D+07         STORAGE CHANGE =         -55069.94
       --------------                             --------------
         LAND SURFACE =        1.9544D+07           LAND SURFACE =         -37051.24
            SOIL ZONE =        2474577.42              SOIL ZONE =          -8818.44
     UNSATURATED ZONE =         358501.55       UNSATURATED ZONE =           -290.74
       SATURATED ZONE =       -1.1757D+07         SATURATED ZONE =          -8909.52

 OVERALL BUDGET ERROR =          -4148.49           BUDGET ERROR =              0.29


  PERCENT DISCREPANCY =             -0.00    PERCENT DISCREPANCY =              0.00



