1
 SUMMARY VOLUMETRIC BUDGET FOR GSFLOW 
 DATE: 12 02 1983              CUMULATIVE TIME STEP:    1157
 MODFLOW STRESS PERIOD      2     CURRENT TIME STEP:       1     ITERATIONS:       8

 -----------------------------------------------------------------------------------

   CUMULATIVE VOLUMES               L**3   RATES FOR THIS TIME STEP           L**3/T
   ------------------                      ------------------------

                                     IN                                         IN
                                     --                                         --
        PRECIPITATION =         367715.09          PRECIPITATION =         367715.09
           STREAMFLOW =                               STREAMFLOW =                  
     GW BOUNDARY FLOW =                         GW BOUNDARY FLOW =                  
                WELLS =             12.71                  WELLS =             12.71


                                    OUT                                        OUT
                                    ---                                        ---
   EVAPOTRANSPIRATION =          10672.95     EVAPOTRANSPIRATION =          10672.95
           STREAMFLOW =          15613.81             STREAMFLOW =          15613.81
     GW BOUNDARY FLOW =            719.63       GW BOUNDARY FLOW =            719.63
                WELLS =            419.97                  WELLS =            419.97

   INFLOWS - OUTFLOWS =         340301.44     INFLOWS - OUTFLOWS =         340301.44
             --------                                   --------

 TOTAL STORAGE CHANGE =         340301.16         STORAGE CHANGE =         340301.16
       --------------                             --------------
         LAND SURFACE =         357042.14           LAND SURFACE =         357042.14
            SOIL ZONE =          -6922.63              SOIL ZONE =          -6922.63
     UNSATURATED ZONE =          -1207.45       UNSATURATED ZONE =          -1207.45
       SATURATED ZONE =          -8610.90         SATURATED ZONE =          -8610.90

 OVERALL BUDGET ERROR =              0.28           BUDGET ERROR =              0.28


  PERCENT DISCREPANCY =              0.00    PERCENT DISCREPANCY =              0.00



1
 SUMMARY VOLUMETRIC BUDGET FOR GSFLOW 
 DATE: 12 03 1983              CUMULATIVE TIME STEP:    1158
 MODFLOW STRESS PERIOD      2     CURRENT TIME STEP:       2     ITERATIONS:       8

 -----------------------------------------------------------------------------------

   CUMULATIVE VOLUMES               L**3   RATES FOR THIS TIME STEP           L**3/T
   ------------------                      ------------------------

                                     IN                                         IN
                                     --                                         --
        PRECIPITATION =        1177485.35          PRECIPITATION =         809770.26
           STREAMFLOW =                               STREAMFLOW =                  
     GW BOUNDARY FLOW =                         GW BOUNDARY FLOW =                  
                WELLS =             25.19                  WELLS =             12.47


                                    OUT                                        OUT
                                    ---                                        ---
   EVAPOTRANSPIRATION =          19960.22     EVAPOTRANSPIRATION =           9287.27
           STREAMFLOW =          30920.19             STREAMFLOW =          15306.38
     GW BOUNDARY FLOW =           1439.26       GW BOUNDARY FLOW =            719.63
                WELLS =            838.19                  WELLS =            418.22

   INFLOWS - OUTFLOWS =        1124352.67     INFLOWS - OUTFLOWS =         784051.24
             --------                                   --------

 TOTAL STORAGE CHANGE =        1124352.10         STORAGE CHANGE =         784050.94
       --------------                             --------------
         LAND SURFACE =        1157525.12           LAND SURFACE =         800482.99
            SOIL ZONE =         -13299.74              SOIL ZONE =          -6377.11
     UNSATURATED ZONE =          -2632.11       UNSATURATED ZONE =          -1424.66
       SATURATED ZONE =         -17241.17         SATURATED ZONE =          -8630.27

 OVERALL BUDGET ERROR =              0.57           BUDGET ERROR =              0.29


  PERCENT DISCREPANCY =              0.00    PERCENT DISCREPANCY =              0.00



1
 SUMMARY VOLUMETRIC BUDGET FOR GSFLOW 
 DATE: 12 04 1983              CUMULATIVE TIME STEP:    1159
 MODFLOW STRESS PERIOD      2     CURRENT TIME STEP:       3     ITERATIONS:       8

 -----------------------------------------------------------------------------------

   CUMULATIVE VOLUMES               L**3   RATES FOR THIS TIME STEP           L**3/T
   ------------------                      ------------------------

                                     IN                                         IN
                                     --                                         --
        PRECIPITATION =        1705242.99          PRECIPITATION =         527757.64
           STREAMFLOW =                               STREAMFLOW =                  
     GW BOUNDARY FLOW =                         GW BOUNDARY FLOW =                  
                WELLS =             37.41                  WELLS =             12.22


                                    OUT                                        OUT
                                    ---                                        ---
   EVAPOTRANSPIRATION =          24012.65     EVAPOTRANSPIRATION =           4052.42
           STREAMFLOW =          45954.25             STREAMFLOW =          15034.06
     GW BOUNDARY FLOW =           2158.85       GW BOUNDARY FLOW =            719.59
                WELLS =           1254.69                  WELLS =            416.50

   INFLOWS - OUTFLOWS =        1631899.95     INFLOWS - OUTFLOWS =         507547.28
             --------                                   --------

 TOTAL STORAGE CHANGE =        1631899.14         STORAGE CHANGE =         507547.04
       --------------                             --------------
         LAND SURFACE =        1681230.34           LAND SURFACE =         523705.22
            SOIL ZONE =         -19078.76              SOIL ZONE =          -5779.02
     UNSATURATED ZONE =          -4336.40       UNSATURATED ZONE =          -1704.29
       SATURATED ZONE =         -25916.04         SATURATED ZONE =          -8674.86

 OVERALL BUDGET ERROR =              0.81           BUDGET ERROR =              0.24


  PERCENT DISCREPANCY =              0.00    PERCENT DISCREPANCY =              0.00



1
 SUMMARY VOLUMETRIC BUDGET FOR GSFLOW 
 DATE: 12 05 1983              CUMULATIVE TIME STEP:    1160
 MODFLOW STRESS PERIOD      2     CURRENT TIME STEP:       4     ITERATIONS:       8

 -----------------------------------------------------------------------------------

   CUMULATIVE VOLUMES               L**3   RATES FOR THIS TIME STEP           L**3/T
   ------------------                      ------------------------

                                     IN                                         IN
                                     --                                         --
        PRECIPITATION =        1705242.99          PRECIPITATION =                  
           STREAMFLOW =                               STREAMFLOW =                  
     GW BOUNDARY FLOW =                         GW BOUNDARY FLOW =                  
                WELLS =             49.37                  WELLS =             11.97


                                    OUT                                        OUT
                                    ---                                        ---
   EVAPOTRANSPIRATION =          24019.88     EVAPOTRANSPIRATION =              7.23
           STREAMFLOW =          60757.83             STREAMFLOW =          14803.57
     GW BOUNDARY FLOW =           2878.40       GW BOUNDARY FLOW =            719.55
                WELLS =           1669.54                  WELLS =            414.85

   INFLOWS - OUTFLOWS =        1615966.71     INFLOWS - OUTFLOWS =         -15933.24
             --------                                   --------

 TOTAL STORAGE CHANGE =        1615965.60         STORAGE CHANGE =         -15933.54
       --------------                             --------------
         LAND SURFACE =        1681223.11           LAND SURFACE =             -7.23
            SOIL ZONE =         -24352.22              SOIL ZONE =          -5273.46
     UNSATURATED ZONE =          -6287.76       UNSATURATED ZONE =          -1951.35
       SATURATED ZONE =         -34617.53         SATURATED ZONE =          -8701.49

 OVERALL BUDGET ERROR =              1.11           BUDGET ERROR =              0.30


  PERCENT DISCREPANCY =              0.00    PERCENT DISCREPANCY =              0.00



1
 SUMMARY VOLUMETRIC BUDGET FOR GSFLOW 
 DATE: 12 06 1983              CUMULATIVE TIME STEP:    1161
 MODFLOW STRESS PERIOD      2     CURRENT TIME STEP:       5     ITERATIONS:       8

 -----------------------------------------------------------------------------------

   CUMULATIVE VOLUMES               L**3   RATES FOR THIS TIME STEP           L**3/T
   ------------------                      ------------------------

                                     IN                                         IN
                                     --                                         --
        PRECIPITATION =        1705242.99          PRECIPITATION =                  
           STREAMFLOW =                               STREAMFLOW =                  
     GW BOUNDARY FLOW =                         GW BOUNDARY FLOW =                  
                WELLS =             61.09                  WELLS =             11.71


                                    OUT                                        OUT
                                    ---                                        ---
   EVAPOTRANSPIRATION =          27282.89     EVAPOTRANSPIRATION =           3263.01
           STREAMFLOW =          75357.40             STREAMFLOW =          14599.57
     GW BOUNDARY FLOW =           3597.88       GW BOUNDARY FLOW =            719.49
                WELLS =           2082.79                  WELLS =            413.25

   INFLOWS - OUTFLOWS =        1596983.11     INFLOWS - OUTFLOWS =         -18983.61
             --------                                   --------

 TOTAL STORAGE CHANGE =        1596981.82         STORAGE CHANGE =         -18983.78
       --------------                             --------------
         LAND SURFACE =        1677960.14           LAND SURFACE =          -3262.97
            SOIL ZONE =         -29191.20              SOIL ZONE =          -4838.98
     UNSATURATED ZONE =          -8425.28       UNSATURATED ZONE =          -2137.53
       SATURATED ZONE =         -43361.84         SATURATED ZONE =          -8744.31

 OVERALL BUDGET ERROR =              1.29           BUDGET ERROR =              0.18


  PERCENT DISCREPANCY =              0.00    PERCENT DISCREPANCY =              0.00



1
 SUMMARY VOLUMETRIC BUDGET FOR GSFLOW 
 DATE: 12 07 1983              CUMULATIVE TIME STEP:    1162
 MODFLOW STRESS PERIOD      2     CURRENT TIME STEP:       6     ITERATIONS:       8

 -----------------------------------------------------------------------------------

   CUMULATIVE VOLUMES               L**3   RATES FOR THIS TIME STEP           L**3/T
   ------------------                      ------------------------

                                     IN                                         IN
                                     --                                         --
        PRECIPITATION =        1967825.28          PRECIPITATION =         262582.30
           STREAMFLOW =                               STREAMFLOW =                  
     GW BOUNDARY FLOW =                         GW BOUNDARY FLOW =                  
                WELLS =             72.55                  WELLS =             11.46


                                    OUT                                        OUT
                                    ---                                        ---
   EVAPOTRANSPIRATION =          36754.23     EVAPOTRANSPIRATION =           9471.34
           STREAMFLOW =          89774.97             STREAMFLOW =          14417.57
     GW BOUNDARY FLOW =           4317.31       GW BOUNDARY FLOW =            719.42
                WELLS =           2494.50                  WELLS =            411.71

   INFLOWS - OUTFLOWS =        1834556.83     INFLOWS - OUTFLOWS =         237573.72
             --------                                   --------

 TOTAL STORAGE CHANGE =        1834555.49         STORAGE CHANGE =         237573.67
       --------------                             --------------
         LAND SURFACE =        1931071.10           LAND SURFACE =         253110.96
            SOIL ZONE =         -33508.98              SOIL ZONE =          -4317.79
     UNSATURATED ZONE =         -10866.35       UNSATURATED ZONE =          -2441.07
       SATURATED ZONE =         -52140.27         SATURATED ZONE =          -8778.43

 OVERALL BUDGET ERROR =              1.34           BUDGET ERROR =              0.05


  PERCENT DISCREPANCY =              0.00    PERCENT DISCREPANCY =              0.00



1
 SUMMARY VOLUMETRIC BUDGET FOR GSFLOW 
 DATE: 12 08 1983              CUMULATIVE TIME STEP:    1163
 MODFLOW STRESS PERIOD      2     CURRENT TIME STEP:       7     ITERATIONS:       8

 -----------------------------------------------------------------------------------

   CUMULATIVE VOLUMES               L**3   RATES FOR THIS TIME STEP           L**3/T
   ------------------                      ------------------------

                                     IN                                         IN
                                     --                                         --
        PRECIPITATION =        2208274.44          PRECIPITATION =         240449.16
           STREAMFLOW =                               STREAMFLOW =                  
     GW BOUNDARY FLOW =                         GW BOUNDARY FLOW =                  
                WELLS =             83.77                  WELLS =             11.22


                                    OUT                                        OUT
                                    ---                                        ---
   EVAPOTRANSPIRATION =          48947.28     EVAPOTRANSPIRATION =          12193.05
           STREAMFLOW =         104035.32             STREAMFLOW =          14260.35
     GW BOUNDARY FLOW =           5036.67       GW BOUNDARY FLOW =            719.37
                WELLS =           2904.71                  WELLS =            410.21

   INFLOWS - OUTFLOWS =        2047434.22     INFLOWS - OUTFLOWS =         212877.40
             --------                                   --------

 TOTAL STORAGE CHANGE =        2047432.72         STORAGE CHANGE =         212877.23
       --------------                             --------------
         LAND SURFACE =        2159327.21           LAND SURFACE =         228256.11
            SOIL ZONE =         -37411.82              SOIL ZONE =          -3902.84
     UNSATURATED ZONE =         -13521.57       UNSATURATED ZONE =          -2655.21
       SATURATED ZONE =         -60961.10         SATURATED ZONE =          -8820.83

 OVERALL BUDGET ERROR =              1.51           BUDGET ERROR =              0.17


  PERCENT DISCREPANCY =              0.00    PERCENT DISCREPANCY =              0.00



1
 SUMMARY VOLUMETRIC BUDGET FOR GSFLOW 
 DATE: 12 09 1983              CUMULATIVE TIME STEP:    1164
 MODFLOW STRESS PERIOD      2     CURRENT TIME STEP:       8     ITERATIONS:      10

 -----------------------------------------------------------------------------------

   CUMULATIVE VOLUMES               L**3   RATES FOR THIS TIME STEP           L**3/T
   ------------------                      ------------------------

                                     IN                                         IN
                                     --                                         --
        PRECIPITATION =        2711586.26          PRECIPITATION =         503311.82
           STREAMFLOW =                               STREAMFLOW =                  
     GW BOUNDARY FLOW =                         GW BOUNDARY FLOW =                  
                WELLS =            102.70                  WELLS =             18.94


                                    OUT                                        OUT
                                    ---                                        ---
   EVAPOTRANSPIRATION =          61182.89     EVAPOTRANSPIRATION =          12235.60
           STREAMFLOW =         118071.67             STREAMFLOW =          14036.35
     GW BOUNDARY FLOW =           5755.98       GW BOUNDARY FLOW =            719.31
                WELLS =           4285.27                  WELLS =           1380.56

   INFLOWS - OUTFLOWS =        2522393.16     INFLOWS - OUTFLOWS =         474958.94
             --------                                   --------

 TOTAL STORAGE CHANGE =        2522391.85         STORAGE CHANGE =         474959.14
       --------------                             --------------
         LAND SURFACE =        2650403.42           LAND SURFACE =         491076.22
            SOIL ZONE =         -40909.18              SOIL ZONE =          -3497.36
     UNSATURATED ZONE =         -16312.83       UNSATURATED ZONE =          -2791.26
       SATURATED ZONE =         -70789.56         SATURATED ZONE =          -9828.45

 OVERALL BUDGET ERROR =              1.31           BUDGET ERROR =             -0.20


  PERCENT DISCREPANCY =              0.00    PERCENT DISCREPANCY =             -0.00



1
 SUMMARY VOLUMETRIC BUDGET FOR GSFLOW 
 DATE: 12 10 1983              CUMULATIVE TIME STEP:    1165
 MODFLOW STRESS PERIOD      2     CURRENT TIME STEP:       9     ITERATIONS:       8

 -----------------------------------------------------------------------------------

   CUMULATIVE VOLUMES               L**3   RATES FOR THIS TIME STEP           L**3/T
   ------------------                      ------------------------

                                     IN                                         IN
                                     --                                         --
        PRECIPITATION =        3535110.98          PRECIPITATION =         823524.72
           STREAMFLOW =                               STREAMFLOW =                  
     GW BOUNDARY FLOW =                         GW BOUNDARY FLOW =                  
                WELLS =            126.09                  WELLS =             23.38


                                    OUT                                        OUT
                                    ---                                        ---
   EVAPOTRANSPIRATION =          69992.57     EVAPOTRANSPIRATION =           8809.68
           STREAMFLOW =         131929.12             STREAMFLOW =          13857.45
     GW BOUNDARY FLOW =           6475.22       GW BOUNDARY FLOW =            719.24
                WELLS =           5628.60                  WELLS =           1343.33

   INFLOWS - OUTFLOWS =        3321211.56     INFLOWS - OUTFLOWS =         798818.40
             --------                                   --------

 TOTAL STORAGE CHANGE =        3321210.49         STORAGE CHANGE =         798818.63
       --------------                             --------------
         LAND SURFACE =        3465118.46           LAND SURFACE =         814715.04
            SOIL ZONE =         -44106.59              SOIL ZONE =          -3197.40
     UNSATURATED ZONE =         -19234.05       UNSATURATED ZONE =          -2921.22
       SATURATED ZONE =         -80567.34         SATURATED ZONE =          -9777.78

 OVERALL BUDGET ERROR =              1.07           BUDGET ERROR =             -0.24


  PERCENT DISCREPANCY =              0.00    PERCENT DISCREPANCY =             -0.00



1
 SUMMARY VOLUMETRIC BUDGET FOR GSFLOW 
 DATE: 12 11 1983              CUMULATIVE TIME STEP:    1166
 MODFLOW STRESS PERIOD      2     CURRENT TIME STEP:      10     ITERATIONS:       8

 -----------------------------------------------------------------------------------

   CUMULATIVE VOLUMES               L**3   RATES FOR THIS TIME STEP           L**3/T
   ------------------                      ------------------------

                                     IN                                         IN
                                     --                                         --
        PRECIPITATION =        4307643.47          PRECIPITATION =         772532.49
           STREAMFLOW =                               STREAMFLOW =                  
     GW BOUNDARY FLOW =                         GW BOUNDARY FLOW =                  
                WELLS =            150.41                  WELLS =             24.33


                                    OUT                                        OUT
                                    ---                                        ---
   EVAPOTRANSPIRATION =          79915.64     EVAPOTRANSPIRATION =           9923.08
           STREAMFLOW =         145640.90             STREAMFLOW =          13711.78
     GW BOUNDARY FLOW =           7194.40       GW BOUNDARY FLOW =            719.18
                WELLS =           6961.88                  WELLS =           1333.28

   INFLOWS - OUTFLOWS =        4068081.06     INFLOWS - OUTFLOWS =         746869.49
             --------                                   --------

 TOTAL STORAGE CHANGE =        4068080.11         STORAGE CHANGE =         746869.62
       --------------                             --------------
         LAND SURFACE =        4227727.87           LAND SURFACE =         762609.41
            SOIL ZONE =         -47032.18              SOIL ZONE =          -2925.60
     UNSATURATED ZONE =         -22254.69       UNSATURATED ZONE =          -3020.65
       SATURATED ZONE =         -90360.88         SATURATED ZONE =          -9793.54

 OVERALL BUDGET ERROR =              0.94           BUDGET ERROR =             -0.13


  PERCENT DISCREPANCY =              0.00    PERCENT DISCREPANCY =             -0.00



1
 SUMMARY VOLUMETRIC BUDGET FOR GSFLOW 
 DATE: 12 12 1983              CUMULATIVE TIME STEP:    1167
 MODFLOW STRESS PERIOD      2     CURRENT TIME STEP:      11     ITERATIONS:       8

 -----------------------------------------------------------------------------------

   CUMULATIVE VOLUMES               L**3   RATES FOR THIS TIME STEP           L**3/T
   ------------------                      ------------------------

                                     IN                                         IN
                                     --                                         --
        PRECIPITATION =        4610851.53          PRECIPITATION =         303208.06
           STREAMFLOW =                               STREAMFLOW =                  
     GW BOUNDARY FLOW =                         GW BOUNDARY FLOW =                  
                WELLS =            174.97                  WELLS =             24.55


                                    OUT                                        OUT
                                    ---                                        ---
   EVAPOTRANSPIRATION =          81841.53     EVAPOTRANSPIRATION =           1925.89
           STREAMFLOW =         159230.66             STREAMFLOW =          13589.76
     GW BOUNDARY FLOW =           7913.52       GW BOUNDARY FLOW =            719.12
                WELLS =           8288.30                  WELLS =           1326.42

   INFLOWS - OUTFLOWS =        4353752.48     INFLOWS - OUTFLOWS =         285671.42
             --------                                   --------

 TOTAL STORAGE CHANGE =        4353751.85         STORAGE CHANGE =         285671.74
       --------------                             --------------
         LAND SURFACE =        4529010.05           LAND SURFACE =         301282.18
            SOIL ZONE =         -49651.13              SOIL ZONE =          -2618.95
     UNSATURATED ZONE =         -25451.37       UNSATURATED ZONE =          -3196.68
       SATURATED ZONE =        -100155.69         SATURATED ZONE =          -9794.81

 OVERALL BUDGET ERROR =              0.63           BUDGET ERROR =             -0.31


  PERCENT DISCREPANCY =              0.00    PERCENT DISCREPANCY =             -0.00



1
 SUMMARY VOLUMETRIC BUDGET FOR GSFLOW 
 DATE: 12 13 1983              CUMULATIVE TIME STEP:    1168
 MODFLOW STRESS PERIOD      2     CURRENT TIME STEP:      12     ITERATIONS:       8

 -----------------------------------------------------------------------------------

   CUMULATIVE VOLUMES               L**3   RATES FOR THIS TIME STEP           L**3/T
   ------------------                      ------------------------

                                     IN                                         IN
                                     --                                         --
        PRECIPITATION =        4659738.95          PRECIPITATION =          48887.43
           STREAMFLOW =                               STREAMFLOW =                  
     GW BOUNDARY FLOW =                         GW BOUNDARY FLOW =                  
                WELLS =            199.58                  WELLS =             24.62


                                    OUT                                        OUT
                                    ---                                        ---
   EVAPOTRANSPIRATION =          89594.02     EVAPOTRANSPIRATION =           7752.49
           STREAMFLOW =         172714.50             STREAMFLOW =          13483.84
     GW BOUNDARY FLOW =           8632.58       GW BOUNDARY FLOW =            719.06
                WELLS =           9608.57                  WELLS =           1320.27

   INFLOWS - OUTFLOWS =        4379388.86     INFLOWS - OUTFLOWS =          25636.38
             --------                                   --------

 TOTAL STORAGE CHANGE =        4379388.56         STORAGE CHANGE =          25636.71
       --------------                             --------------
         LAND SURFACE =        4570144.98           LAND SURFACE =          41134.93
            SOIL ZONE =         -51998.33              SOIL ZONE =          -2347.19
     UNSATURATED ZONE =         -28797.42       UNSATURATED ZONE =          -3346.04
       SATURATED ZONE =        -109960.68         SATURATED ZONE =          -9804.99

 OVERALL BUDGET ERROR =              0.30           BUDGET ERROR =             -0.34


  PERCENT DISCREPANCY =              0.00    PERCENT DISCREPANCY =             -0.00



1
 SUMMARY VOLUMETRIC BUDGET FOR GSFLOW 
 DATE: 12 14 1983              CUMULATIVE TIME STEP:    1169
 MODFLOW STRESS PERIOD      2     CURRENT TIME STEP:      13     ITERATIONS:       8

 -----------------------------------------------------------------------------------

   CUMULATIVE VOLUMES               L**3   RATES FOR THIS TIME STEP           L**3/T
   ------------------                      ------------------------

                                     IN                                         IN
                                     --                                         --
        PRECIPITATION =        4659738.95          PRECIPITATION =                  
           STREAMFLOW =                               STREAMFLOW =                  
     GW BOUNDARY FLOW =                         GW BOUNDARY FLOW =                  
                WELLS =            224.21                  WELLS =             24.63


                                    OUT                                        OUT
                                    ---                                        ---
   EVAPOTRANSPIRATION =         131642.09     EVAPOTRANSPIRATION =          42048.06
           STREAMFLOW =         186103.29             STREAMFLOW =          13388.79
     GW BOUNDARY FLOW =           9351.58       GW BOUNDARY FLOW =            719.00
                WELLS =          10923.04                  WELLS =           1314.47

   INFLOWS - OUTFLOWS =        4321943.16     INFLOWS - OUTFLOWS =         -57445.69
             --------                                   --------

 TOTAL STORAGE CHANGE =        4321943.18         STORAGE CHANGE =         -57445.38
       --------------                             --------------
         LAND SURFACE =        4528099.10           LAND SURFACE =         -42045.88
            SOIL ZONE =         -54142.71              SOIL ZONE =          -2144.38
     UNSATURATED ZONE =         -32241.72       UNSATURATED ZONE =          -3444.31
       SATURATED ZONE =        -119771.49         SATURATED ZONE =          -9810.81

 OVERALL BUDGET ERROR =             -0.02           BUDGET ERROR =             -0.31


  PERCENT DISCREPANCY =             -0.00    PERCENT DISCREPANCY =             -0.00



1
 SUMMARY VOLUMETRIC BUDGET FOR GSFLOW 
 DATE: 12 15 1983              CUMULATIVE TIME STEP:    1170
 MODFLOW STRESS PERIOD      2     CURRENT TIME STEP:      14     ITERATIONS:       8

 -----------------------------------------------------------------------------------

   CUMULATIVE VOLUMES               L**3   RATES FOR THIS TIME STEP           L**3/T
   ------------------                      ------------------------

                                     IN                                         IN
                                     --                                         --
        PRECIPITATION =        4659738.95          PRECIPITATION =                  
           STREAMFLOW =                               STREAMFLOW =                  
     GW BOUNDARY FLOW =                         GW BOUNDARY FLOW =                  
                WELLS =            248.83                  WELLS =             24.62


                                    OUT                                        OUT
                                    ---                                        ---
   EVAPOTRANSPIRATION =         164003.71     EVAPOTRANSPIRATION =          32361.63
           STREAMFLOW =         199406.98             STREAMFLOW =          13303.69
     GW BOUNDARY FLOW =          10070.52       GW BOUNDARY FLOW =            718.94
                WELLS =          12231.99                  WELLS =           1308.95

   INFLOWS - OUTFLOWS =        4274274.59     INFLOWS - OUTFLOWS =         -47668.58
             --------                                   --------

 TOTAL STORAGE CHANGE =        4274275.20         STORAGE CHANGE =         -47667.98
       --------------                             --------------
         LAND SURFACE =        4495930.09           LAND SURFACE =         -32169.01
            SOIL ZONE =         -56180.31              SOIL ZONE =          -2037.61
     UNSATURATED ZONE =         -35885.60       UNSATURATED ZONE =          -3643.88
       SATURATED ZONE =        -129588.97         SATURATED ZONE =          -9817.48

 OVERALL BUDGET ERROR =             -0.62           BUDGET ERROR =             -0.60


  PERCENT DISCREPANCY =             -0.00    PERCENT DISCREPANCY =             -0.00



1
 SUMMARY VOLUMETRIC BUDGET FOR GSFLOW 
 DATE: 12 16 1983              CUMULATIVE TIME STEP:    1171
 MODFLOW STRESS PERIOD      2     CURRENT TIME STEP:      15     ITERATIONS:       8

 -----------------------------------------------------------------------------------

   CUMULATIVE VOLUMES               L**3   RATES FOR THIS TIME STEP           L**3/T
   ------------------                      ------------------------

                                     IN                                         IN
                                     --                                         --
        PRECIPITATION =        4953122.23          PRECIPITATION =         293383.27
           STREAMFLOW =                               STREAMFLOW =                  
     GW BOUNDARY FLOW =                         GW BOUNDARY FLOW =                  
                WELLS =            273.44                  WELLS =             24.61


                                    OUT                                        OUT
                                    ---                                        ---
   EVAPOTRANSPIRATION =         178186.79     EVAPOTRANSPIRATION =          14183.07
           STREAMFLOW =         213358.58             STREAMFLOW =          13951.61
     GW BOUNDARY FLOW =          10789.45       GW BOUNDARY FLOW =            718.93
                WELLS =          13535.65                  WELLS =           1303.66

   INFLOWS - OUTFLOWS =        4537525.20     INFLOWS - OUTFLOWS =         263250.62
             --------                                   --------

 TOTAL STORAGE CHANGE =        4537526.58         STORAGE CHANGE =         263251.38
       --------------                             --------------
         LAND SURFACE =        4771156.18           LAND SURFACE =         275226.10
            SOIL ZONE =         -54683.17              SOIL ZONE =           1497.14
     UNSATURATED ZONE =         -39585.33       UNSATURATED ZONE =          -3699.73
       SATURATED ZONE =        -139361.10         SATURATED ZONE =          -9772.13

 OVERALL BUDGET ERROR =             -1.38           BUDGET ERROR =             -0.76


  PERCENT DISCREPANCY =             -0.00    PERCENT DISCREPANCY =             -0.00



1
 SUMMARY VOLUMETRIC BUDGET FOR GSFLOW 
 DATE: 12 17 1983              CUMULATIVE TIME STEP:    1172
 MODFLOW STRESS PERIOD      2     CURRENT TIME STEP:      16     ITERATIONS:       8

 -----------------------------------------------------------------------------------

   CUMULATIVE VOLUMES               L**3   RATES FOR THIS TIME STEP           L**3/T
   ------------------                      ------------------------

                                     IN                                         IN
                                     --                                         --
        PRECIPITATION =        5172732.10          PRECIPITATION =         219609.87
           STREAMFLOW =                               STREAMFLOW =                  
     GW BOUNDARY FLOW =                         GW BOUNDARY FLOW =                  
                WELLS =            298.03                  WELLS =             24.59


                                    OUT                                        OUT
                                    ---                                        ---
   EVAPOTRANSPIRATION =         193128.09     EVAPOTRANSPIRATION =          14941.30
           STREAMFLOW =         229710.16             STREAMFLOW =          16351.58
     GW BOUNDARY FLOW =          11508.50       GW BOUNDARY FLOW =            719.06
                WELLS =          14834.25                  WELLS =           1298.60

   INFLOWS - OUTFLOWS =        4723849.14     INFLOWS - OUTFLOWS =         186323.94
             --------                                   --------

 TOTAL STORAGE CHANGE =        4723851.67         STORAGE CHANGE =         186325.08
       --------------                             --------------
         LAND SURFACE =        4959073.03           LAND SURFACE =         187916.85
            SOIL ZONE =         -43155.24              SOIL ZONE =          11527.93
     UNSATURATED ZONE =         -43039.46       UNSATURATED ZONE =          -3454.13
       SATURATED ZONE =        -149026.67         SATURATED ZONE =          -9665.57

 OVERALL BUDGET ERROR =             -2.53           BUDGET ERROR =             -1.15


  PERCENT DISCREPANCY =             -0.00    PERCENT DISCREPANCY =             -0.00



1
 SUMMARY VOLUMETRIC BUDGET FOR GSFLOW 
 DATE: 12 18 1983              CUMULATIVE TIME STEP:    1173
 MODFLOW STRESS PERIOD      2     CURRENT TIME STEP:      17     ITERATIONS:       8

 -----------------------------------------------------------------------------------

   CUMULATIVE VOLUMES               L**3   RATES FOR THIS TIME STEP           L**3/T
   ------------------                      ------------------------

                                     IN                                         IN
                                     --                                         --
        PRECIPITATION =        5233588.04          PRECIPITATION =          60855.94
           STREAMFLOW =                               STREAMFLOW =                  
     GW BOUNDARY FLOW =                         GW BOUNDARY FLOW =                  
                WELLS =            322.61                  WELLS =             24.58


                                    OUT                                        OUT
                                    ---                                        ---
   EVAPOTRANSPIRATION =         201929.37     EVAPOTRANSPIRATION =           8801.28
           STREAMFLOW =         244125.46             STREAMFLOW =          14415.30
     GW BOUNDARY FLOW =          12227.51       GW BOUNDARY FLOW =            719.01
                WELLS =          16127.99                  WELLS =           1293.74

   INFLOWS - OUTFLOWS =        4759500.33     INFLOWS - OUTFLOWS =          35651.19
             --------                                   --------

 TOTAL STORAGE CHANGE =        4759503.96         STORAGE CHANGE =          35652.29
       --------------                             --------------
         LAND SURFACE =        5011127.69           LAND SURFACE =          52054.66
            SOIL ZONE =         -46348.83              SOIL ZONE =          -3193.60
     UNSATURATED ZONE =         -46502.40       UNSATURATED ZONE =          -3462.94
       SATURATED ZONE =        -158772.50         SATURATED ZONE =          -9745.83

 OVERALL BUDGET ERROR =             -3.63           BUDGET ERROR =             -1.11


  PERCENT DISCREPANCY =             -0.00    PERCENT DISCREPANCY =             -0.00



1
 SUMMARY VOLUMETRIC BUDGET FOR GSFLOW 
 DATE: 12 19 1983              CUMULATIVE TIME STEP:    1174
 MODFLOW STRESS PERIOD      2     CURRENT TIME STEP:      18     ITERATIONS:       8

 -----------------------------------------------------------------------------------

   CUMULATIVE VOLUMES               L**3   RATES FOR THIS TIME STEP           L**3/T
   ------------------                      ------------------------

                                     IN                                         IN
                                     --                                         --
        PRECIPITATION =        5233588.04          PRECIPITATION =                  
           STREAMFLOW =                               STREAMFLOW =                  
     GW BOUNDARY FLOW =                         GW BOUNDARY FLOW =                  
                WELLS =            347.17                  WELLS =             24.56


                                    OUT                                        OUT
                                    ---                                        ---
   EVAPOTRANSPIRATION =         221299.12     EVAPOTRANSPIRATION =          19369.75
           STREAMFLOW =         258292.25             STREAMFLOW =          14166.79
     GW BOUNDARY FLOW =          12946.47       GW BOUNDARY FLOW =            718.96
                WELLS =          17417.08                  WELLS =           1289.09

   INFLOWS - OUTFLOWS =        4723980.31     INFLOWS - OUTFLOWS =         -35520.02
             --------                                   --------

 TOTAL STORAGE CHANGE =        4723985.38         STORAGE CHANGE =         -35518.58
       --------------                             --------------
         LAND SURFACE =        4991307.49           LAND SURFACE =         -19820.21
            SOIL ZONE =         -48553.15              SOIL ZONE =          -2204.32
     UNSATURATED ZONE =         -50226.06       UNSATURATED ZONE =          -3723.66
       SATURATED ZONE =        -168542.89         SATURATED ZONE =          -9770.39

 OVERALL BUDGET ERROR =             -5.08           BUDGET ERROR =             -1.45


  PERCENT DISCREPANCY =             -0.00    PERCENT DISCREPANCY =             -0.00



1
 SUMMARY VOLUMETRIC BUDGET FOR GSFLOW 
 DATE: 12 20 1983              CUMULATIVE TIME STEP:    1175
 MODFLOW STRESS PERIOD      2     CURRENT TIME STEP:      19     ITERATIONS:       8

 -----------------------------------------------------------------------------------

   CUMULATIVE VOLUMES               L**3   RATES FOR THIS TIME STEP           L**3/T
   ------------------                      ------------------------

                                     IN                                         IN
                                     --                                         --
        PRECIPITATION =        5233588.04          PRECIPITATION =                  
           STREAMFLOW =                               STREAMFLOW =                  
     GW BOUNDARY FLOW =                         GW BOUNDARY FLOW =                  
                WELLS =            371.71                  WELLS =             24.54


                                    OUT                                        OUT
                                    ---                                        ---
   EVAPOTRANSPIRATION =         244279.87     EVAPOTRANSPIRATION =          22980.76
           STREAMFLOW =         272225.25             STREAMFLOW =          13933.00
     GW BOUNDARY FLOW =          13665.37       GW BOUNDARY FLOW =            718.90
                WELLS =          18701.69                  WELLS =           1284.61

   INFLOWS - OUTFLOWS =        4685087.57     INFLOWS - OUTFLOWS =         -38892.73
             --------                                   --------

 TOTAL STORAGE CHANGE =        4685094.11         STORAGE CHANGE =         -38891.27
       --------------                             --------------
         LAND SURFACE =        4967921.00           LAND SURFACE =         -23386.49
            SOIL ZONE =         -50443.83              SOIL ZONE =          -1890.68
     UNSATURATED ZONE =         -54072.90       UNSATURATED ZONE =          -3846.83
       SATURATED ZONE =        -178310.16         SATURATED ZONE =          -9767.27

 OVERALL BUDGET ERROR =             -6.54           BUDGET ERROR =             -1.46


  PERCENT DISCREPANCY =             -0.00    PERCENT DISCREPANCY =             -0.00



1
 SUMMARY VOLUMETRIC BUDGET FOR GSFLOW 
 DATE: 12 21 1983              CUMULATIVE TIME STEP:    1176
 MODFLOW STRESS PERIOD      2     CURRENT TIME STEP:      20     ITERATIONS:       8

 -----------------------------------------------------------------------------------

   CUMULATIVE VOLUMES               L**3   RATES FOR THIS TIME STEP           L**3/T
   ------------------                      ------------------------

                                     IN                                         IN
                                     --                                         --
        PRECIPITATION =        5233588.04          PRECIPITATION =                  
           STREAMFLOW =                               STREAMFLOW =                  
     GW BOUNDARY FLOW =                         GW BOUNDARY FLOW =                  
                WELLS =            396.23                  WELLS =             24.52


                                    OUT                                        OUT
                                    ---                                        ---
   EVAPOTRANSPIRATION =         246446.98     EVAPOTRANSPIRATION =           2167.11
           STREAMFLOW =         285926.28             STREAMFLOW =          13701.04
     GW BOUNDARY FLOW =          14384.21       GW BOUNDARY FLOW =            718.84
                WELLS =          19982.00                  WELLS =           1280.32

   INFLOWS - OUTFLOWS =        4667244.79     INFLOWS - OUTFLOWS =         -17842.78
             --------                                   --------

 TOTAL STORAGE CHANGE =        4667252.70         STORAGE CHANGE =         -17841.41
       --------------                             --------------
         LAND SURFACE =        4965753.89           LAND SURFACE =          -2167.11
            SOIL ZONE =         -52454.06              SOIL ZONE =          -2010.23
     UNSATURATED ZONE =         -57943.88       UNSATURATED ZONE =          -3870.98
       SATURATED ZONE =        -188103.26         SATURATED ZONE =          -9793.10

 OVERALL BUDGET ERROR =             -7.90           BUDGET ERROR =             -1.37


  PERCENT DISCREPANCY =             -0.00    PERCENT DISCREPANCY =             -0.01



1
 SUMMARY VOLUMETRIC BUDGET FOR GSFLOW 
 DATE: 12 22 1983              CUMULATIVE TIME STEP:    1177
 MODFLOW STRESS PERIOD      2     CURRENT TIME STEP:      21     ITERATIONS:       8

 -----------------------------------------------------------------------------------

   CUMULATIVE VOLUMES               L**3   RATES FOR THIS TIME STEP           L**3/T
   ------------------                      ------------------------

                                     IN                                         IN
                                     --                                         --
        PRECIPITATION =        5428172.53          PRECIPITATION =         194584.49
           STREAMFLOW =                               STREAMFLOW =                  
     GW BOUNDARY FLOW =                         GW BOUNDARY FLOW =                  
                WELLS =            420.73                  WELLS =             24.50


                                    OUT                                        OUT
                                    ---                                        ---
   EVAPOTRANSPIRATION =         247753.40     EVAPOTRANSPIRATION =           1306.42
           STREAMFLOW =         299462.67             STREAMFLOW =          13536.38
     GW BOUNDARY FLOW =          15103.05       GW BOUNDARY FLOW =            718.84
                WELLS =          21258.19                  WELLS =           1276.19

   INFLOWS - OUTFLOWS =        4845015.96     INFLOWS - OUTFLOWS =         177771.17
             --------                                   --------

 TOTAL STORAGE CHANGE =        4845025.29         STORAGE CHANGE =         177772.59
       --------------                             --------------
         LAND SURFACE =        5159031.97           LAND SURFACE =         193278.08
            SOIL ZONE =         -54243.22              SOIL ZONE =          -1789.16
     UNSATURATED ZONE =         -61868.32       UNSATURATED ZONE =          -3924.44
       SATURATED ZONE =        -197895.14         SATURATED ZONE =          -9791.88

 OVERALL BUDGET ERROR =             -9.33           BUDGET ERROR =             -1.42


  PERCENT DISCREPANCY =             -0.00    PERCENT DISCREPANCY =             -0.00



1
 SUMMARY VOLUMETRIC BUDGET FOR GSFLOW 
 DATE: 12 23 1983              CUMULATIVE TIME STEP:    1178
 MODFLOW STRESS PERIOD      2     CURRENT TIME STEP:      22     ITERATIONS:       8

 -----------------------------------------------------------------------------------

   CUMULATIVE VOLUMES               L**3   RATES FOR THIS TIME STEP           L**3/T
   ------------------                      ------------------------

                                     IN                                         IN
                                     --                                         --
        PRECIPITATION =        6015828.42          PRECIPITATION =         587655.89
           STREAMFLOW =                               STREAMFLOW =                  
     GW BOUNDARY FLOW =                         GW BOUNDARY FLOW =                  
                WELLS =            445.21                  WELLS =             24.48


                                    OUT                                        OUT
                                    ---                                        ---
   EVAPOTRANSPIRATION =         253566.54     EVAPOTRANSPIRATION =           5813.15
           STREAMFLOW =         312861.57             STREAMFLOW =          13398.90
     GW BOUNDARY FLOW =          15821.85       GW BOUNDARY FLOW =            718.80
                WELLS =          22530.41                  WELLS =           1272.22

   INFLOWS - OUTFLOWS =        5411493.27     INFLOWS - OUTFLOWS =         566477.31
             --------                                   --------

 TOTAL STORAGE CHANGE =        5411503.99         STORAGE CHANGE =         566478.70
       --------------                             --------------
         LAND SURFACE =        5740874.71           LAND SURFACE =         581842.74
            SOIL ZONE =         -55821.24              SOIL ZONE =          -1578.02
     UNSATURATED ZONE =         -65847.21       UNSATURATED ZONE =          -3978.89
       SATURATED ZONE =        -207702.27         SATURATED ZONE =          -9807.14

 OVERALL BUDGET ERROR =            -10.72           BUDGET ERROR =             -1.39


  PERCENT DISCREPANCY =             -0.00    PERCENT DISCREPANCY =             -0.00



1
 SUMMARY VOLUMETRIC BUDGET FOR GSFLOW 
 DATE: 12 24 1983              CUMULATIVE TIME STEP:    1179
 MODFLOW STRESS PERIOD      2     CURRENT TIME STEP:      23     ITERATIONS:      10

 -----------------------------------------------------------------------------------

   CUMULATIVE VOLUMES               L**3   RATES FOR THIS TIME STEP           L**3/T
   ------------------                      ------------------------

                                     IN                                         IN
                                     --                                         --
        PRECIPITATION =        6974361.46          PRECIPITATION =         958533.03
           STREAMFLOW =                               STREAMFLOW =                  
     GW BOUNDARY FLOW =                         GW BOUNDARY FLOW =                  
                WELLS =            470.95                  WELLS =             25.73


                                    OUT                                        OUT
                                    ---                                        ---
   EVAPOTRANSPIRATION =         265211.92     EVAPOTRANSPIRATION =          11645.37
           STREAMFLOW =         326177.25             STREAMFLOW =          13315.68
     GW BOUNDARY FLOW =          16540.60       GW BOUNDARY FLOW =            718.75
                WELLS =          23425.20                  WELLS =            894.79

   INFLOWS - OUTFLOWS =        6343477.45     INFLOWS - OUTFLOWS =         931984.18
             --------                                   --------

 TOTAL STORAGE CHANGE =        6343489.47         STORAGE CHANGE =         931985.49
       --------------                             --------------
         LAND SURFACE =        6687762.34           LAND SURFACE =         946887.64
            SOIL ZONE =         -57213.09              SOIL ZONE =          -1391.85
     UNSATURATED ZONE =         -69887.08       UNSATURATED ZONE =          -4039.87
       SATURATED ZONE =        -217172.71         SATURATED ZONE =          -9470.43

 OVERALL BUDGET ERROR =            -12.03           BUDGET ERROR =             -1.31


  PERCENT DISCREPANCY =             -0.00    PERCENT DISCREPANCY =             -0.00



1
 SUMMARY VOLUMETRIC BUDGET FOR GSFLOW 
 DATE: 12 25 1983              CUMULATIVE TIME STEP:    1180
 MODFLOW STRESS PERIOD      2     CURRENT TIME STEP:      24     ITERATIONS:       8

 -----------------------------------------------------------------------------------

   CUMULATIVE VOLUMES               L**3   RATES FOR THIS TIME STEP           L**3/T
   ------------------                      ------------------------

                                     IN                                         IN
                                     --                                         --
        PRECIPITATION =        7974454.96          PRECIPITATION =        1000093.51
           STREAMFLOW =                               STREAMFLOW =                  
     GW BOUNDARY FLOW =                         GW BOUNDARY FLOW =                  
                WELLS =            496.22                  WELLS =             25.27


                                    OUT                                        OUT
                                    ---                                        ---
   EVAPOTRANSPIRATION =         276580.50     EVAPOTRANSPIRATION =          11368.58
           STREAMFLOW =         339411.33             STREAMFLOW =          13234.09
     GW BOUNDARY FLOW =          17259.30       GW BOUNDARY FLOW =            718.70
                WELLS =          24317.98                  WELLS =            892.78

   INFLOWS - OUTFLOWS =        7317382.07     INFLOWS - OUTFLOWS =         973904.62
             --------                                   --------

 TOTAL STORAGE CHANGE =        7317395.46         STORAGE CHANGE =         973905.99
       --------------                             --------------
         LAND SURFACE =        7676487.27           LAND SURFACE =         988724.93
            SOIL ZONE =         -58427.03              SOIL ZONE =          -1213.94
     UNSATURATED ZONE =         -73990.06       UNSATURATED ZONE =          -4102.98
       SATURATED ZONE =        -226674.72         SATURATED ZONE =          -9502.01

 OVERALL BUDGET ERROR =            -13.40           BUDGET ERROR =             -1.37


  PERCENT DISCREPANCY =             -0.00    PERCENT DISCREPANCY =             -0.00



1
 SUMMARY VOLUMETRIC BUDGET FOR GSFLOW 
 DATE: 12 26 1983              CUMULATIVE TIME STEP:    1181
 MODFLOW STRESS PERIOD      2     CURRENT TIME STEP:      25     ITERATIONS:       8

 -----------------------------------------------------------------------------------

   CUMULATIVE VOLUMES               L**3   RATES FOR THIS TIME STEP           L**3/T
   ------------------                      ------------------------

                                     IN                                         IN
                                     --                                         --
        PRECIPITATION =        8581716.32          PRECIPITATION =         607261.35
           STREAMFLOW =                               STREAMFLOW =                  
     GW BOUNDARY FLOW =                         GW BOUNDARY FLOW =                  
                WELLS =            522.13                  WELLS =             25.91


                                    OUT                                        OUT
                                    ---                                        ---
   EVAPOTRANSPIRATION =         286842.66     EVAPOTRANSPIRATION =          10262.16
           STREAMFLOW =         352572.26             STREAMFLOW =          13160.93
     GW BOUNDARY FLOW =          17977.96       GW BOUNDARY FLOW =            718.66
                WELLS =          25209.12                  WELLS =            891.14

   INFLOWS - OUTFLOWS =        7899636.44     INFLOWS - OUTFLOWS =         582254.37
             --------                                   --------

 TOTAL STORAGE CHANGE =        7899651.21         STORAGE CHANGE =         582255.74
       --------------                             --------------
         LAND SURFACE =        8273486.46           LAND SURFACE =         596999.19
            SOIL ZONE =         -59538.78              SOIL ZONE =          -1111.75
     UNSATURATED ZONE =         -78094.49       UNSATURATED ZONE =          -4104.43
       SATURATED ZONE =        -236201.99         SATURATED ZONE =          -9527.27

 OVERALL BUDGET ERROR =            -14.76           BUDGET ERROR =             -1.37


  PERCENT DISCREPANCY =             -0.00    PERCENT DISCREPANCY =             -0.00



1
 SUMMARY VOLUMETRIC BUDGET FOR GSFLOW 
 DATE: 12 27 1983              CUMULATIVE TIME STEP:    1182
 MODFLOW STRESS PERIOD      2     CURRENT TIME STEP:      26     ITERATIONS:       8

 -----------------------------------------------------------------------------------

   CUMULATIVE VOLUMES               L**3   RATES FOR THIS TIME STEP           L**3/T
   ------------------                      ------------------------

                                     IN                                         IN
                                     --                                         --
        PRECIPITATION =        8932039.84          PRECIPITATION =         350323.53
           STREAMFLOW =                               STREAMFLOW =                  
     GW BOUNDARY FLOW =                         GW BOUNDARY FLOW =                  
                WELLS =            548.00                  WELLS =             25.87


                                    OUT                                        OUT
                                    ---                                        ---
   EVAPOTRANSPIRATION =         296307.91     EVAPOTRANSPIRATION =           9465.25
           STREAMFLOW =         365666.46             STREAMFLOW =          13094.19
     GW BOUNDARY FLOW =          18696.57       GW BOUNDARY FLOW =            718.62
                WELLS =          26097.76                  WELLS =            888.64

   INFLOWS - OUTFLOWS =        8225819.15     INFLOWS - OUTFLOWS =         326182.70
             --------                                   --------

 TOTAL STORAGE CHANGE =        8225835.32         STORAGE CHANGE =         326184.11
       --------------                             --------------
         LAND SURFACE =        8614344.74           LAND SURFACE =         340858.28
            SOIL ZONE =         -60565.05              SOIL ZONE =          -1026.27
     UNSATURATED ZONE =         -82181.40       UNSATURATED ZONE =          -4086.91
       SATURATED ZONE =        -245762.97         SATURATED ZONE =          -9560.98

 OVERALL BUDGET ERROR =            -16.18           BUDGET ERROR =             -1.41


  PERCENT DISCREPANCY =             -0.00    PERCENT DISCREPANCY =             -0.00



1
 SUMMARY VOLUMETRIC BUDGET FOR GSFLOW 
 DATE: 12 28 1983              CUMULATIVE TIME STEP:    1183
 MODFLOW STRESS PERIOD      2     CURRENT TIME STEP:      27     ITERATIONS:       8

 -----------------------------------------------------------------------------------

   CUMULATIVE VOLUMES               L**3   RATES FOR THIS TIME STEP           L**3/T
   ------------------                      ------------------------

                                     IN                                         IN
                                     --                                         --
        PRECIPITATION =        9062616.68          PRECIPITATION =         130576.83
           STREAMFLOW =                               STREAMFLOW =                  
     GW BOUNDARY FLOW =                         GW BOUNDARY FLOW =                  
                WELLS =            573.75                  WELLS =             25.75


                                    OUT                                        OUT
                                    ---                                        ---
   EVAPOTRANSPIRATION =         300588.16     EVAPOTRANSPIRATION =           4280.25
           STREAMFLOW =         378701.80             STREAMFLOW =          13035.34
     GW BOUNDARY FLOW =          19415.15       GW BOUNDARY FLOW =            718.58
                WELLS =          26983.83                  WELLS =            886.07

   INFLOWS - OUTFLOWS =        8337501.49     INFLOWS - OUTFLOWS =         111682.34
             --------                                   --------

 TOTAL STORAGE CHANGE =        8337519.08         STORAGE CHANGE =         111683.76
       --------------                             --------------
         LAND SURFACE =        8740641.33           LAND SURFACE =         126296.59
            SOIL ZONE =         -61448.96              SOIL ZONE =           -883.91
     UNSATURATED ZONE =         -86340.39       UNSATURATED ZONE =          -4159.00
       SATURATED ZONE =        -255332.89         SATURATED ZONE =          -9569.92

 OVERALL BUDGET ERROR =            -17.60           BUDGET ERROR =             -1.42


  PERCENT DISCREPANCY =             -0.00    PERCENT DISCREPANCY =             -0.00



1
 SUMMARY VOLUMETRIC BUDGET FOR GSFLOW 
 DATE: 12 29 1983              CUMULATIVE TIME STEP:    1184
 MODFLOW STRESS PERIOD      2     CURRENT TIME STEP:      28     ITERATIONS:       8

 -----------------------------------------------------------------------------------

   CUMULATIVE VOLUMES               L**3   RATES FOR THIS TIME STEP           L**3/T
   ------------------                      ------------------------

                                     IN                                         IN
                                     --                                         --
        PRECIPITATION =        9285111.36          PRECIPITATION =         222494.69
           STREAMFLOW =                               STREAMFLOW =                  
     GW BOUNDARY FLOW =                         GW BOUNDARY FLOW =                  
                WELLS =            599.36                  WELLS =             25.62


                                    OUT                                        OUT
                                    ---                                        ---
   EVAPOTRANSPIRATION =         314213.85     EVAPOTRANSPIRATION =          13625.69
           STREAMFLOW =         391684.16             STREAMFLOW =          12982.36
     GW BOUNDARY FLOW =          20133.69       GW BOUNDARY FLOW =            718.54
                WELLS =          27867.40                  WELLS =            883.57

   INFLOWS - OUTFLOWS =        8531811.63     INFLOWS - OUTFLOWS =         194310.14
             --------                                   --------

 TOTAL STORAGE CHANGE =        8531830.59         STORAGE CHANGE =         194311.51
       --------------                             --------------
         LAND SURFACE =        8949510.33           LAND SURFACE =         208869.00
            SOIL ZONE =         -62361.02              SOIL ZONE =           -912.06
     UNSATURATED ZONE =         -90422.54       UNSATURATED ZONE =          -4082.15
       SATURATED ZONE =        -264896.18         SATURATED ZONE =          -9563.29

 OVERALL BUDGET ERROR =            -18.96           BUDGET ERROR =             -1.37


  PERCENT DISCREPANCY =             -0.00    PERCENT DISCREPANCY =             -0.00



1
 SUMMARY VOLUMETRIC BUDGET FOR GSFLOW 
 DATE: 12 30 1983              CUMULATIVE TIME STEP:    1185
 MODFLOW STRESS PERIOD      2     CURRENT TIME STEP:      29     ITERATIONS:       8

 -----------------------------------------------------------------------------------

   CUMULATIVE VOLUMES               L**3   RATES FOR THIS TIME STEP           L**3/T
   ------------------                      ------------------------

                                     IN                                         IN
                                     --                                         --
        PRECIPITATION =        9758459.68          PRECIPITATION =         473348.32
           STREAMFLOW =                               STREAMFLOW =                  
     GW BOUNDARY FLOW =                         GW BOUNDARY FLOW =                  
                WELLS =            624.85                  WELLS =             25.49


                                    OUT                                        OUT
                                    ---                                        ---
   EVAPOTRANSPIRATION =         333923.48     EVAPOTRANSPIRATION =          19709.63
           STREAMFLOW =         408900.00             STREAMFLOW =          17215.84
     GW BOUNDARY FLOW =          20852.45       GW BOUNDARY FLOW =            718.76
                WELLS =          28748.56                  WELLS =            881.16

   INFLOWS - OUTFLOWS =        8966660.04     INFLOWS - OUTFLOWS =         434848.42
             --------                                   --------

 TOTAL STORAGE CHANGE =        8966680.53         STORAGE CHANGE =         434849.94
       --------------                             --------------
         LAND SURFACE =        9374334.13           LAND SURFACE =         424823.80
            SOIL ZONE =         -39777.36              SOIL ZONE =          22583.67
     UNSATURATED ZONE =         -93631.72       UNSATURATED ZONE =          -3209.18
       SATURATED ZONE =        -274244.52         SATURATED ZONE =          -9348.34

 OVERALL BUDGET ERROR =            -20.49           BUDGET ERROR =             -1.53


  PERCENT DISCREPANCY =             -0.00    PERCENT DISCREPANCY =             -0.00



1
 SUMMARY VOLUMETRIC BUDGET FOR GSFLOW 
 DATE: 12 31 1983              CUMULATIVE TIME STEP:    1186
 MODFLOW STRESS PERIOD      2     CURRENT TIME STEP:      30     ITERATIONS:       8

 -----------------------------------------------------------------------------------

   CUMULATIVE VOLUMES               L**3   RATES FOR THIS TIME STEP           L**3/T
   ------------------                      ------------------------

                                     IN                                         IN
                                     --                                         --
        PRECIPITATION =        9947976.66          PRECIPITATION =         189516.99
           STREAMFLOW =                               STREAMFLOW =                  
     GW BOUNDARY FLOW =                         GW BOUNDARY FLOW =                  
                WELLS =            650.20                  WELLS =             25.35


                                    OUT                                        OUT
                                    ---                                        ---
   EVAPOTRANSPIRATION =         343532.95     EVAPOTRANSPIRATION =           9609.47
           STREAMFLOW =         424285.15             STREAMFLOW =          15385.15
     GW BOUNDARY FLOW =          21571.20       GW BOUNDARY FLOW =            718.75
                WELLS =          29627.40                  WELLS =            878.84

   INFLOWS - OUTFLOWS =        9129610.16     INFLOWS - OUTFLOWS =         162950.12
             --------                                   --------

 TOTAL STORAGE CHANGE =        9129632.06         STORAGE CHANGE =         162951.53
       --------------                             --------------
         LAND SURFACE =        9548812.90           LAND SURFACE =         174478.77
            SOIL ZONE =         -38761.26              SOIL ZONE =           1016.10
     UNSATURATED ZONE =         -96728.63       UNSATURATED ZONE =          -3096.91
       SATURATED ZONE =        -283690.96         SATURATED ZONE =          -9446.44

 OVERALL BUDGET ERROR =            -21.90           BUDGET ERROR =             -1.40


  PERCENT DISCREPANCY =             -0.00    PERCENT DISCREPANCY =             -0.00



1
 SUMMARY VOLUMETRIC BUDGET FOR GSFLOW 
 DATE: 01 01 1984              CUMULATIVE TIME STEP:    1187
 MODFLOW STRESS PERIOD      2     CURRENT TIME STEP:      31     ITERATIONS:       8

 -----------------------------------------------------------------------------------

   CUMULATIVE VOLUMES               L**3   RATES FOR THIS TIME STEP           L**3/T
   ------------------                      ------------------------

                                     IN                                         IN
                                     --                                         --
        PRECIPITATION =        9947976.66          PRECIPITATION =                  
           STREAMFLOW =                               STREAMFLOW =                  
     GW BOUNDARY FLOW =                         GW BOUNDARY FLOW =                  
                WELLS =            675.42                  WELLS =             25.22


                                    OUT                                        OUT
                                    ---                                        ---
   EVAPOTRANSPIRATION =         373833.85     EVAPOTRANSPIRATION =          30300.90
           STREAMFLOW =         439580.96             STREAMFLOW =          15295.80
     GW BOUNDARY FLOW =          22289.94       GW BOUNDARY FLOW =            718.74
                WELLS =          30503.99                  WELLS =            876.59

   INFLOWS - OUTFLOWS =        9082443.35     INFLOWS - OUTFLOWS =         -47166.82
             --------                                   --------

 TOTAL STORAGE CHANGE =        9082466.45         STORAGE CHANGE =         -47165.61
       --------------                             --------------
         LAND SURFACE =        9513927.45           LAND SURFACE =         -34885.46
            SOIL ZONE =         -38569.82              SOIL ZONE =            191.44
     UNSATURATED ZONE =         -99729.85       UNSATURATED ZONE =          -3001.22
       SATURATED ZONE =        -293161.33         SATURATED ZONE =          -9470.37

 OVERALL BUDGET ERROR =            -23.10           BUDGET ERROR =             -1.21


  PERCENT DISCREPANCY =             -0.00    PERCENT DISCREPANCY =             -0.00



1
 SUMMARY VOLUMETRIC BUDGET FOR GSFLOW 
 DATE: 01 02 1984              CUMULATIVE TIME STEP:    1188
 MODFLOW STRESS PERIOD      2     CURRENT TIME STEP:      32     ITERATIONS:       8

 -----------------------------------------------------------------------------------

   CUMULATIVE VOLUMES               L**3   RATES FOR THIS TIME STEP           L**3/T
   ------------------                      ------------------------

                                     IN                                         IN
                                     --                                         --
        PRECIPITATION =        9947976.66          PRECIPITATION =                  
           STREAMFLOW =                               STREAMFLOW =                  
     GW BOUNDARY FLOW =                         GW BOUNDARY FLOW =                  
                WELLS =            700.51                  WELLS =             25.09


                                    OUT                                        OUT
                                    ---                                        ---
   EVAPOTRANSPIRATION =         405324.03     EVAPOTRANSPIRATION =          31490.19
           STREAMFLOW =         454945.14             STREAMFLOW =          15364.18
     GW BOUNDARY FLOW =          23008.67       GW BOUNDARY FLOW =            718.73
                WELLS =          31378.43                  WELLS =            874.43

   INFLOWS - OUTFLOWS =        9034020.91     INFLOWS - OUTFLOWS =         -48422.44
             --------                                   --------

 TOTAL STORAGE CHANGE =        9034045.38         STORAGE CHANGE =         -48421.07
       --------------                             --------------
         LAND SURFACE =        9476840.27           LAND SURFACE =         -37087.18
            SOIL ZONE =         -37512.31              SOIL ZONE =           1057.51
     UNSATURATED ZONE =        -102665.17       UNSATURATED ZONE =          -2935.32
       SATURATED ZONE =        -302617.41         SATURATED ZONE =          -9456.08

 OVERALL BUDGET ERROR =            -24.47           BUDGET ERROR =             -1.37


  PERCENT DISCREPANCY =             -0.00    PERCENT DISCREPANCY =             -0.00



1
 SUMMARY VOLUMETRIC BUDGET FOR GSFLOW 
 DATE: 01 03 1984              CUMULATIVE TIME STEP:    1189
 MODFLOW STRESS PERIOD      2     CURRENT TIME STEP:      33     ITERATIONS:       8

 -----------------------------------------------------------------------------------

   CUMULATIVE VOLUMES               L**3   RATES FOR THIS TIME STEP           L**3/T
   ------------------                      ------------------------

                                     IN                                         IN
                                     --                                         --
        PRECIPITATION =        9947976.66          PRECIPITATION =                  
           STREAMFLOW =                               STREAMFLOW =                  
     GW BOUNDARY FLOW =                         GW BOUNDARY FLOW =                  
                WELLS =            725.48                  WELLS =             24.96


                                    OUT                                        OUT
                                    ---                                        ---
   EVAPOTRANSPIRATION =         430403.44     EVAPOTRANSPIRATION =          25079.40
           STREAMFLOW =         469959.55             STREAMFLOW =          15014.42
     GW BOUNDARY FLOW =          23727.36       GW BOUNDARY FLOW =            718.69
                WELLS =          32250.78                  WELLS =            872.35

   INFLOWS - OUTFLOWS =        8992361.01     INFLOWS - OUTFLOWS =         -41659.90
             --------                                   --------

 TOTAL STORAGE CHANGE =        8992386.69         STORAGE CHANGE =         -41658.68
       --------------                             --------------
         LAND SURFACE =        9449263.22           LAND SURFACE =         -27577.05
            SOIL ZONE =         -39175.89              SOIL ZONE =          -1663.58
     UNSATURATED ZONE =        -105598.55       UNSATURATED ZONE =          -2933.38
       SATURATED ZONE =        -312102.08         SATURATED ZONE =          -9484.67

 OVERALL BUDGET ERROR =            -25.69           BUDGET ERROR =             -1.22


  PERCENT DISCREPANCY =             -0.00    PERCENT DISCREPANCY =             -0.00



1
 SUMMARY VOLUMETRIC BUDGET FOR GSFLOW 
 DATE: 01 04 1984              CUMULATIVE TIME STEP:    1190
 MODFLOW STRESS PERIOD      2     CURRENT TIME STEP:      34     ITERATIONS:       8

 -----------------------------------------------------------------------------------

   CUMULATIVE VOLUMES               L**3   RATES FOR THIS TIME STEP           L**3/T
   ------------------                      ------------------------

                                     IN                                         IN
                                     --                                         --
        PRECIPITATION =        9947976.66          PRECIPITATION =                  
           STREAMFLOW =                               STREAMFLOW =                  
     GW BOUNDARY FLOW =                         GW BOUNDARY FLOW =                  
                WELLS =            750.31                  WELLS =             24.83


                                    OUT                                        OUT
                                    ---                                        ---
   EVAPOTRANSPIRATION =         476518.65     EVAPOTRANSPIRATION =          46115.21
           STREAMFLOW =         491433.86             STREAMFLOW =          21474.30
     GW BOUNDARY FLOW =          24446.41       GW BOUNDARY FLOW =            719.05
                WELLS =          33121.13                  WELLS =            870.35

   INFLOWS - OUTFLOWS =        8923206.93     INFLOWS - OUTFLOWS =         -69154.08
             --------                                   --------

 TOTAL STORAGE CHANGE =        8923233.98         STORAGE CHANGE =         -69152.71
       --------------                             --------------
         LAND SURFACE =        9352865.98           LAND SURFACE =         -96397.24
            SOIL ZONE =          -1697.29              SOIL ZONE =          37478.60
     UNSATURATED ZONE =        -106860.78       UNSATURATED ZONE =          -1262.23
       SATURATED ZONE =        -321073.93         SATURATED ZONE =          -8971.85

 OVERALL BUDGET ERROR =            -27.06           BUDGET ERROR =             -1.37


  PERCENT DISCREPANCY =             -0.00    PERCENT DISCREPANCY =             -0.00



1
 SUMMARY VOLUMETRIC BUDGET FOR GSFLOW 
 DATE: 01 05 1984              CUMULATIVE TIME STEP:    1191
 MODFLOW STRESS PERIOD      2     CURRENT TIME STEP:      35     ITERATIONS:       9

 -----------------------------------------------------------------------------------

   CUMULATIVE VOLUMES               L**3   RATES FOR THIS TIME STEP           L**3/T
   ------------------                      ------------------------

                                     IN                                         IN
                                     --                                         --
        PRECIPITATION =        9947976.66          PRECIPITATION =                  
           STREAMFLOW =                               STREAMFLOW =                  
     GW BOUNDARY FLOW =                         GW BOUNDARY FLOW =                  
                WELLS =            780.54                  WELLS =             30.23


                                    OUT                                        OUT
                                    ---                                        ---
   EVAPOTRANSPIRATION =         518376.87     EVAPOTRANSPIRATION =          41858.23
           STREAMFLOW =         517457.03             STREAMFLOW =          26023.18
     GW BOUNDARY FLOW =          25165.89       GW BOUNDARY FLOW =            719.48
                WELLS =          33630.59                  WELLS =            509.46

   INFLOWS - OUTFLOWS =        8854126.81     INFLOWS - OUTFLOWS =         -69080.11
             --------                                   --------

 TOTAL STORAGE CHANGE =        8854155.11         STORAGE CHANGE =         -69078.87
       --------------                             --------------
         LAND SURFACE =        9243848.09           LAND SURFACE =        -109017.89
            SOIL ZONE =          45883.73              SOIL ZONE =          47581.02
     UNSATURATED ZONE =        -106207.78       UNSATURATED ZONE =            653.00
       SATURATED ZONE =        -329368.93         SATURATED ZONE =          -8295.00

 OVERALL BUDGET ERROR =            -28.30           BUDGET ERROR =             -1.24


  PERCENT DISCREPANCY =             -0.00    PERCENT DISCREPANCY =             -0.00



1
 SUMMARY VOLUMETRIC BUDGET FOR GSFLOW 
 DATE: 01 06 1984              CUMULATIVE TIME STEP:    1192
 MODFLOW STRESS PERIOD      2     CURRENT TIME STEP:      36     ITERATIONS:       8

 -----------------------------------------------------------------------------------

   CUMULATIVE VOLUMES               L**3   RATES FOR THIS TIME STEP           L**3/T
   ------------------                      ------------------------

                                     IN                                         IN
                                     --                                         --
        PRECIPITATION =        9947976.66          PRECIPITATION =                  
           STREAMFLOW =                               STREAMFLOW =                  
     GW BOUNDARY FLOW =                         GW BOUNDARY FLOW =                  
[...]
     UNSATURATED ZONE =         -40690.61       UNSATURATED ZONE =            376.27
       SATURATED ZONE =        -474844.77         SATURATED ZONE =          -9250.74

 OVERALL BUDGET ERROR =            -35.24           BUDGET ERROR =              0.32


  PERCENT DISCREPANCY =             -0.00    PERCENT DISCREPANCY =              0.00



1
 SUMMARY VOLUMETRIC BUDGET FOR GSFLOW 
 DATE: 01 23 1984              CUMULATIVE TIME STEP:    1209
 MODFLOW STRESS PERIOD      2     CURRENT TIME STEP:      53     ITERATIONS:      11

 -----------------------------------------------------------------------------------

   CUMULATIVE VOLUMES               L**3   RATES FOR THIS TIME STEP           L**3/T
   ------------------                      ------------------------

                                     IN                                         IN
                                     --                                         --
        PRECIPITATION =        1.0194D+07          PRECIPITATION =                  
           STREAMFLOW =                               STREAMFLOW =                  
     GW BOUNDARY FLOW =                         GW BOUNDARY FLOW =                  
                WELLS =           1270.10                  WELLS =              9.61


                                    OUT                                        OUT
                                    ---                                        ---
   EVAPOTRANSPIRATION =         827651.50     EVAPOTRANSPIRATION =          19678.64
           STREAMFLOW =         993226.76             STREAMFLOW =          15918.20
     GW BOUNDARY FLOW =          38128.24       GW BOUNDARY FLOW =            718.83
                WELLS =          43529.88                  WELLS =            446.20

   INFLOWS - OUTFLOWS =        8293218.17     INFLOWS - OUTFLOWS =         -36752.26
             --------                                   --------

 TOTAL STORAGE CHANGE =        8293252.94         STORAGE CHANGE =         -36752.73
       --------------                             --------------
         LAND SURFACE =        8815610.59           LAND SURFACE =         -19262.69
            SOIL ZONE =           1970.31              SOIL ZONE =          -8697.46
     UNSATURATED ZONE =         -40642.95       UNSATURATED ZONE =             47.66
       SATURATED ZONE =        -483685.01         SATURATED ZONE =          -8840.24

 OVERALL BUDGET ERROR =            -34.77           BUDGET ERROR =              0.47


  PERCENT DISCREPANCY =             -0.00    PERCENT DISCREPANCY =              0.00



1
 SUMMARY VOLUMETRIC BUDGET FOR GSFLOW 
 DATE: 01 24 1984              CUMULATIVE TIME STEP:    1210
 MODFLOW STRESS PERIOD      2     CURRENT TIME STEP:      54     ITERATIONS:       8

 -----------------------------------------------------------------------------------

   CUMULATIVE VOLUMES               L**3   RATES FOR THIS TIME STEP           L**3/T
   ------------------                      ------------------------

                                     IN                                         IN
                                     --                                         --
        PRECIPITATION =        1.0194D+07          PRECIPITATION =                  
           STREAMFLOW =                               STREAMFLOW =                  
     GW BOUNDARY FLOW =                         GW BOUNDARY FLOW =                  
                WELLS =           1281.70                  WELLS =             11.60


                                    OUT                                        OUT
                                    ---                                        ---
   EVAPOTRANSPIRATION =         865984.34     EVAPOTRANSPIRATION =          38332.83
           STREAMFLOW =        1008787.72             STREAMFLOW =          15560.97
     GW BOUNDARY FLOW =          38846.97       GW BOUNDARY FLOW =            718.74
                WELLS =          43976.03                  WELLS =            446.16

   INFLOWS - OUTFLOWS =        8238171.07     INFLOWS - OUTFLOWS =         -55047.10
             --------                                   --------

 TOTAL STORAGE CHANGE =        8238205.60         STORAGE CHANGE =         -55047.34
       --------------                             --------------
         LAND SURFACE =        8778559.34           LAND SURFACE =         -37051.24
            SOIL ZONE =          -6849.13              SOIL ZONE =          -8819.44
     UNSATURATED ZONE =         -40917.95       UNSATURATED ZONE =           -275.00
       SATURATED ZONE =        -492586.66         SATURATED ZONE =          -8901.65

 OVERALL BUDGET ERROR =            -34.53           BUDGET ERROR =              0.24


  PERCENT DISCREPANCY =             -0.00    PERCENT DISCREPANCY =              0.00



1
 SUMMARY VOLUMETRIC BUDGET FOR GSFLOW 
 DATE: 01 25 1984              CUMULATIVE TIME STEP:    1211
 MODFLOW STRESS PERIOD      2     CURRENT TIME STEP:      55     ITERATIONS:       8

 -----------------------------------------------------------------------------------

   CUMULATIVE VOLUMES               L**3   RATES FOR THIS TIME STEP           L**3/T
   ------------------                      ------------------------

                                     IN                                         IN
                                     --                                         --
        PRECIPITATION =        1.0194D+07          PRECIPITATION =                  
           STREAMFLOW =                               STREAMFLOW =                  
     GW BOUNDARY FLOW =                         GW BOUNDARY FLOW =                  
                WELLS =           1294.90                  WELLS =             13.20


                                    OUT                                        OUT
                                    ---                                        ---
   EVAPOTRANSPIRATION =         908171.62     EVAPOTRANSPIRATION =          42187.28
           STREAMFLOW =        1024017.17             STREAMFLOW =          15229.44
     GW BOUNDARY FLOW =          39565.63       GW BOUNDARY FLOW =            718.65
                WELLS =          44421.40                  WELLS =            445.37

   INFLOWS - OUTFLOWS =        8179603.53     INFLOWS - OUTFLOWS =         -58567.54
             --------                                   --------

 TOTAL STORAGE CHANGE =        8179637.58         STORAGE CHANGE =         -58568.02
       --------------                             --------------
         LAND SURFACE =        8737808.57           LAND SURFACE =         -40750.77
            SOIL ZONE =         -15099.67              SOIL ZONE =          -8250.54
     UNSATURATED ZONE =         -41544.44       UNSATURATED ZONE =           -626.49
       SATURATED ZONE =        -501526.88         SATURATED ZONE =          -8940.22

 OVERALL BUDGET ERROR =            -34.05           BUDGET ERROR =              0.48


  PERCENT DISCREPANCY =             -0.00    PERCENT DISCREPANCY =              0.00



1
 SUMMARY VOLUMETRIC BUDGET FOR GSFLOW 
 DATE: 01 26 1984              CUMULATIVE TIME STEP:    1212
 MODFLOW STRESS PERIOD      2     CURRENT TIME STEP:      56     ITERATIONS:       8

 -----------------------------------------------------------------------------------

   CUMULATIVE VOLUMES               L**3   RATES FOR THIS TIME STEP           L**3/T
   ------------------                      ------------------------

                                     IN                                         IN
                                     --                                         --
        PRECIPITATION =        1.0194D+07          PRECIPITATION =                  
           STREAMFLOW =                               STREAMFLOW =                  
     GW BOUNDARY FLOW =                         GW BOUNDARY FLOW =                  
                WELLS =           1308.50                  WELLS =             13.60


                                    OUT                                        OUT
                                    ---                                        ---
   EVAPOTRANSPIRATION =         936194.29     EVAPOTRANSPIRATION =          28022.68
           STREAMFLOW =        1038950.40             STREAMFLOW =          14933.23
     GW BOUNDARY FLOW =          40284.19       GW BOUNDARY FLOW =            718.56
                WELLS =          44864.69                  WELLS =            443.29

   INFLOWS - OUTFLOWS =        8135499.37     INFLOWS - OUTFLOWS =         -44104.16
             --------                                   --------

 TOTAL STORAGE CHANGE =        8135533.05         STORAGE CHANGE =         -44104.53
       --------------                             --------------
         LAND SURFACE =        8710473.86           LAND SURFACE =         -27334.71
            SOIL ZONE =         -21953.81              SOIL ZONE =          -6854.14
     UNSATURATED ZONE =         -42490.07       UNSATURATED ZONE =           -945.64
       SATURATED ZONE =        -510496.92         SATURATED ZONE =          -8970.04

 OVERALL BUDGET ERROR =            -33.68           BUDGET ERROR =              0.37


  PERCENT DISCREPANCY =             -0.00    PERCENT DISCREPANCY =              0.00



1
 SUMMARY VOLUMETRIC BUDGET FOR GSFLOW 
 DATE: 01 27 1984              CUMULATIVE TIME STEP:    1213
 MODFLOW STRESS PERIOD      2     CURRENT TIME STEP:      57     ITERATIONS:       9

 -----------------------------------------------------------------------------------

   CUMULATIVE VOLUMES               L**3   RATES FOR THIS TIME STEP           L**3/T
   ------------------                      ------------------------

                                     IN                                         IN
                                     --                                         --
        PRECIPITATION =        1.0194D+07          PRECIPITATION =                  
           STREAMFLOW =                               STREAMFLOW =                  
     GW BOUNDARY FLOW =                         GW BOUNDARY FLOW =                  
                WELLS =           1322.08                  WELLS =             13.58


                                    OUT                                        OUT
                                    ---                                        ---
   EVAPOTRANSPIRATION =         961970.47     EVAPOTRANSPIRATION =          25776.18
           STREAMFLOW =        1053627.18             STREAMFLOW =          14676.79
     GW BOUNDARY FLOW =          41002.67       GW BOUNDARY FLOW =            718.48
                WELLS =          45305.54                  WELLS =            440.84

   INFLOWS - OUTFLOWS =        8093900.66     INFLOWS - OUTFLOWS =         -41598.71
             --------                                   --------

 TOTAL STORAGE CHANGE =        8093934.02         STORAGE CHANGE =         -41599.03
       --------------                             --------------
         LAND SURFACE =        8685575.96           LAND SURFACE =         -24897.90
            SOIL ZONE =         -28462.31              SOIL ZONE =          -6508.50
     UNSATURATED ZONE =         -43693.56       UNSATURATED ZONE =          -1203.49
       SATURATED ZONE =        -519486.06         SATURATED ZONE =          -8989.14

 OVERALL BUDGET ERROR =            -33.36           BUDGET ERROR =              0.32


  PERCENT DISCREPANCY =             -0.00    PERCENT DISCREPANCY =              0.00



1
 SUMMARY VOLUMETRIC BUDGET FOR GSFLOW 
 DATE: 01 28 1984              CUMULATIVE TIME STEP:    1214
 MODFLOW STRESS PERIOD      2     CURRENT TIME STEP:      58     ITERATIONS:       8

 -----------------------------------------------------------------------------------

   CUMULATIVE VOLUMES               L**3   RATES FOR THIS TIME STEP           L**3/T
   ------------------                      ------------------------

                                     IN                                         IN
                                     --                                         --
        PRECIPITATION =        1.0194D+07          PRECIPITATION =                  
           STREAMFLOW =                               STREAMFLOW =                  
     GW BOUNDARY FLOW =                         GW BOUNDARY FLOW =                  
                WELLS =           1335.51                  WELLS =             13.44


                                    OUT                                        OUT
                                    ---                                        ---
   EVAPOTRANSPIRATION =        1006789.24     EVAPOTRANSPIRATION =          44818.77
           STREAMFLOW =        1068074.70             STREAMFLOW =          14447.52
     GW BOUNDARY FLOW =          41721.07       GW BOUNDARY FLOW =            718.40
                WELLS =          45743.91                  WELLS =            438.37

   INFLOWS - OUTFLOWS =        8033491.04     INFLOWS - OUTFLOWS =         -60409.62
             --------                                   --------

 TOTAL STORAGE CHANGE =        8033524.20         STORAGE CHANGE =         -60409.82
       --------------                             --------------
         LAND SURFACE =        8642473.19           LAND SURFACE =         -43102.77
            SOIL ZONE =         -35278.48              SOIL ZONE =          -6816.17
     UNSATURATED ZONE =         -45160.97       UNSATURATED ZONE =          -1467.40
       SATURATED ZONE =        -528509.54         SATURATED ZONE =          -9023.47

 OVERALL BUDGET ERROR =            -33.16           BUDGET ERROR =              0.20


  PERCENT DISCREPANCY =             -0.00    PERCENT DISCREPANCY =              0.00



1
 SUMMARY VOLUMETRIC BUDGET FOR GSFLOW 
 DATE: 01 29 1984              CUMULATIVE TIME STEP:    1215
 MODFLOW STRESS PERIOD      2     CURRENT TIME STEP:      59     ITERATIONS:       8

 -----------------------------------------------------------------------------------

   CUMULATIVE VOLUMES               L**3   RATES FOR THIS TIME STEP           L**3/T
   ------------------                      ------------------------

                                     IN                                         IN
                                     --                                         --
        PRECIPITATION =        1.0194D+07          PRECIPITATION =                  
           STREAMFLOW =                               STREAMFLOW =                  
     GW BOUNDARY FLOW =                         GW BOUNDARY FLOW =                  
                WELLS =           1348.78                  WELLS =             13.26


                                    OUT                                        OUT
                                    ---                                        ---
   EVAPOTRANSPIRATION =        1050035.85     EVAPOTRANSPIRATION =          43246.61
           STREAMFLOW =        1082315.36             STREAMFLOW =          14240.67
     GW BOUNDARY FLOW =          42439.41       GW BOUNDARY FLOW =            718.33
                WELLS =          46179.86                  WELLS =            435.96

   INFLOWS - OUTFLOWS =        7974862.73     INFLOWS - OUTFLOWS =         -58628.31
             --------                                   --------

 TOTAL STORAGE CHANGE =        7974895.59         STORAGE CHANGE =         -58628.61
       --------------                             --------------
         LAND SURFACE =        8600846.19           LAND SURFACE =         -41626.99
            SOIL ZONE =         -41619.35              SOIL ZONE =          -6340.87
     UNSATURATED ZONE =         -46756.97       UNSATURATED ZONE =          -1596.00
       SATURATED ZONE =        -537574.28         SATURATED ZONE =          -9064.74

 OVERALL BUDGET ERROR =            -32.86           BUDGET ERROR =              0.30


  PERCENT DISCREPANCY =             -0.00    PERCENT DISCREPANCY =              0.00



1
 SUMMARY VOLUMETRIC BUDGET FOR GSFLOW 
 DATE: 01 30 1984              CUMULATIVE TIME STEP:    1216
 MODFLOW STRESS PERIOD      2     CURRENT TIME STEP:      60     ITERATIONS:       8

 -----------------------------------------------------------------------------------

   CUMULATIVE VOLUMES               L**3   RATES FOR THIS TIME STEP           L**3/T
   ------------------                      ------------------------

                                     IN                                         IN
                                     --                                         --
        PRECIPITATION =        1.0194D+07          PRECIPITATION =                  
           STREAMFLOW =                               STREAMFLOW =                  
     GW BOUNDARY FLOW =                         GW BOUNDARY FLOW =                  
                WELLS =           1361.85                  WELLS =             13.07


                                    OUT                                        OUT
                                    ---                                        ---
   EVAPOTRANSPIRATION =        1099455.80     EVAPOTRANSPIRATION =          49419.94
           STREAMFLOW =        1096389.72             STREAMFLOW =          14074.35
     GW BOUNDARY FLOW =          43157.67       GW BOUNDARY FLOW =            718.27
                WELLS =          46613.48                  WELLS =            433.62

   INFLOWS - OUTFLOWS =        7910229.62     INFLOWS - OUTFLOWS =         -64633.11
             --------                                   --------

 TOTAL STORAGE CHANGE =        7910262.18         STORAGE CHANGE =         -64633.41
       --------------                             --------------
         LAND SURFACE =        8553007.82           LAND SURFACE =         -47838.38
            SOIL ZONE =         -47524.50              SOIL ZONE =          -5905.15
     UNSATURATED ZONE =         -48573.74       UNSATURATED ZONE =          -1816.77
       SATURATED ZONE =        -546647.40         SATURATED ZONE =          -9073.12

 OVERALL BUDGET ERROR =            -32.56           BUDGET ERROR =              0.30


  PERCENT DISCREPANCY =             -0.00    PERCENT DISCREPANCY =              0.00



 Number of time steps:     60;  Number of non-convergence:   0
 MF iterations:           490;  SZ iterations:             490
 Average MF iterations:  8.17;  Average SZ iterations:    8.17
 Maximum MF iterations:    11;  Maximum SZ iterations:      11

MF iteration distribution:      0    0    0    0    0    0    0   54    3    2
                                1    0    0    0    0    0    0    0    0    0
                                0    0    0    0    0    0    0    0    0    0
                                0    0    0    0    0    0    0    0    0    0
                                0    0    0    0    0    0    0    0    0    0
                                0    0    0    0    0    0    0    0    0    0
                                0    0    0    0    0    0    0    0    0    0
                                0    0    0    0    0    0    0    0    0    0

SZ computation distribution:    0    0    0    0    0    0    0   54    3    2
                                1    0    0    0    0    0    0    0    0    0
                                0    0    0    0    0    0    0    0    0    0
                                0    0    0    0    0    0    0    0    0    0
                                0    0    0    0    0    0    0    0    0    0
                                0    0    0    0    0    0    0    0    0    0
                                0    0    0    0    0    0    0    0    0    0
                                0    0    0    0    0    0    0    0    0    0

