1
 SUMMARY VOLUMETRIC BUDGET FOR GSFLOW 
 DATE: 11 10 1983              CUMULATIVE TIME STEP:    1135
 MODFLOW STRESS PERIOD      2     CURRENT TIME STEP:       7     ITERATIONS:       8

 -----------------------------------------------------------------------------------

   CUMULATIVE VOLUMES               L**3   RATES FOR THIS TIME STEP           L**3/T
   ------------------                      ------------------------

                                     IN                                         IN
                                     --                                         --
        PRECIPITATION =        1961472.48          PRECIPITATION =        1338149.95
           STREAMFLOW =                               STREAMFLOW =                  
     GW BOUNDARY FLOW =                         GW BOUNDARY FLOW =                  
                WELLS =            187.12                  WELLS =             26.22


                                    OUT                                        OUT
                                    ---                                        ---
   EVAPOTRANSPIRATION =         212310.58     EVAPOTRANSPIRATION =          16472.16
           STREAMFLOW =         301293.23             STREAMFLOW =          87860.00
     GW BOUNDARY FLOW =           5050.49       GW BOUNDARY FLOW =            723.66
                WELLS =           3514.17                  WELLS =            500.34

   INFLOWS - OUTFLOWS =        1439491.13     INFLOWS - OUTFLOWS =        1232620.02
             --------                                   --------

 TOTAL STORAGE CHANGE =        1445871.52         STORAGE CHANGE =        1232623.16
       --------------                             --------------
         LAND SURFACE =         667491.40           LAND SURFACE =        1036800.81
            SOIL ZONE =         822307.68              SOIL ZONE =         195690.60
     UNSATURATED ZONE =           7017.86       UNSATURATED ZONE =           6345.60
       SATURATED ZONE =         -50945.42         SATURATED ZONE =          -6213.85

 OVERALL BUDGET ERROR =          -6380.39           BUDGET ERROR =             -3.14


  PERCENT DISCREPANCY =             -0.32    PERCENT DISCREPANCY =             -0.00



