1
 SUMMARY VOLUMETRIC BUDGET FOR GSFLOW 
 DATE: 10 28 1983              CUMULATIVE TIME STEP:    1122
 MODFLOW STRESS PERIOD      2     CURRENT TIME STEP:       1     ITERATIONS:       9

 -----------------------------------------------------------------------------------

   CUMULATIVE VOLUMES               L**3   RATES FOR THIS TIME STEP           L**3/T
   ------------------                      ------------------------

                                     IN                                         IN
                                     --                                         --
        PRECIPITATION =                            PRECIPITATION =                  
           STREAMFLOW =                               STREAMFLOW =                  
     GW BOUNDARY FLOW =                         GW BOUNDARY FLOW =                  
                WELLS =             22.74                  WELLS =             22.74


                                    OUT                                        OUT
                                    ---                                        ---
   EVAPOTRANSPIRATION =          31114.40     EVAPOTRANSPIRATION =          31114.40
           STREAMFLOW =           4625.39             STREAMFLOW =           4625.39
     GW BOUNDARY FLOW =            717.47       GW BOUNDARY FLOW =            717.47
                WELLS =            874.76                  WELLS =            874.76

   INFLOWS - OUTFLOWS =         -37309.28     INFLOWS - OUTFLOWS =         -37309.28
             --------                                   --------

 TOTAL STORAGE CHANGE =         -37306.73         STORAGE CHANGE =         -37306.73
       --------------                             --------------
         LAND SURFACE =          -2894.35           LAND SURFACE =          -2894.35
            SOIL ZONE =         -19538.70              SOIL ZONE =         -19538.70
     UNSATURATED ZONE =          -5388.03       UNSATURATED ZONE =          -5388.03
       SATURATED ZONE =          -9485.65         SATURATED ZONE =          -9485.65

 OVERALL BUDGET ERROR =             -2.55           BUDGET ERROR =             -2.55


  PERCENT DISCREPANCY =             -0.01    PERCENT DISCREPANCY =             -0.01



1
 SUMMARY VOLUMETRIC BUDGET FOR GSFLOW 
 DATE: 10 29 1983              CUMULATIVE TIME STEP:    1123
 MODFLOW STRESS PERIOD      2     CURRENT TIME STEP:       2     ITERATIONS:       9

 -----------------------------------------------------------------------------------

   CUMULATIVE VOLUMES               L**3   RATES FOR THIS TIME STEP           L**3/T
   ------------------                      ------------------------

                                     IN                                         IN
                                     --                                         --
        PRECIPITATION =         224568.86          PRECIPITATION =         224568.86
           STREAMFLOW =                               STREAMFLOW =                  
     GW BOUNDARY FLOW =                         GW BOUNDARY FLOW =                  
                WELLS =             45.38                  WELLS =             22.64


                                    OUT                                        OUT
                                    ---                                        ---
   EVAPOTRANSPIRATION =          65473.73     EVAPOTRANSPIRATION =          34359.32
           STREAMFLOW =          11526.30             STREAMFLOW =           6900.92
     GW BOUNDARY FLOW =           1435.11       GW BOUNDARY FLOW =            717.64
                WELLS =           1747.34                  WELLS =            872.58

   INFLOWS - OUTFLOWS =         144431.76     INFLOWS - OUTFLOWS =         181741.04
             --------                                   --------

 TOTAL STORAGE CHANGE =         144437.31         STORAGE CHANGE =         181744.04
       --------------                             --------------
         LAND SURFACE =          65978.85           LAND SURFACE =          68873.19
            SOIL ZONE =         107480.70              SOIL ZONE =         127019.40
     UNSATURATED ZONE =         -10510.27       UNSATURATED ZONE =          -5122.24
       SATURATED ZONE =         -18511.97         SATURATED ZONE =          -9026.31

 OVERALL BUDGET ERROR =             -5.55           BUDGET ERROR =             -3.00


  PERCENT DISCREPANCY =             -0.00    PERCENT DISCREPANCY =             -0.00



1
 SUMMARY VOLUMETRIC BUDGET FOR GSFLOW 
 DATE: 10 30 1983              CUMULATIVE TIME STEP:    1124
 MODFLOW STRESS PERIOD      2     CURRENT TIME STEP:       3     ITERATIONS:       9

 -----------------------------------------------------------------------------------

   CUMULATIVE VOLUMES               L**3   RATES FOR THIS TIME STEP           L**3/T
   ------------------                      ------------------------

                                     IN                                         IN
                                     --                                         --
        PRECIPITATION =         922808.49          PRECIPITATION =         698239.62
           STREAMFLOW =                               STREAMFLOW =                  
     GW BOUNDARY FLOW =                         GW BOUNDARY FLOW =                  
                WELLS =             73.44                  WELLS =             28.06


                                    OUT                                        OUT
                                    ---                                        ---
   EVAPOTRANSPIRATION =          97312.63     EVAPOTRANSPIRATION =          31838.90
           STREAMFLOW =          23770.74             STREAMFLOW =          12244.43
     GW BOUNDARY FLOW =           2153.21       GW BOUNDARY FLOW =            718.11
                WELLS =           2258.87                  WELLS =            511.52

   INFLOWS - OUTFLOWS =         797386.48     INFLOWS - OUTFLOWS =         652954.72
             --------                                   --------

 TOTAL STORAGE CHANGE =         797394.70         STORAGE CHANGE =         652957.39
       --------------                             --------------
         LAND SURFACE =         444316.25           LAND SURFACE =         378337.40
            SOIL ZONE =         395015.47              SOIL ZONE =         287534.77
     UNSATURATED ZONE =         -15186.73       UNSATURATED ZONE =          -4676.46
       SATURATED ZONE =         -26750.28         SATURATED ZONE =          -8238.32

 OVERALL BUDGET ERROR =             -8.22           BUDGET ERROR =             -2.67


  PERCENT DISCREPANCY =             -0.00    PERCENT DISCREPANCY =             -0.00



1
 SUMMARY VOLUMETRIC BUDGET FOR GSFLOW 
 DATE: 10 31 1983              CUMULATIVE TIME STEP:    1125
 MODFLOW STRESS PERIOD      2     CURRENT TIME STEP:       4     ITERATIONS:       9

 -----------------------------------------------------------------------------------

   CUMULATIVE VOLUMES               L**3   RATES FOR THIS TIME STEP           L**3/T
   ------------------                      ------------------------

                                     IN                                         IN
                                     --                                         --
        PRECIPITATION =        1714084.90          PRECIPITATION =         791276.41
           STREAMFLOW =                               STREAMFLOW =                  
     GW BOUNDARY FLOW =                         GW BOUNDARY FLOW =                  
                WELLS =            100.21                  WELLS =             26.76


                                    OUT                                        OUT
                                    ---                                        ---
   EVAPOTRANSPIRATION =         127228.77     EVAPOTRANSPIRATION =          29916.14
           STREAMFLOW =          36093.33             STREAMFLOW =          12322.59
     GW BOUNDARY FLOW =           2871.60       GW BOUNDARY FLOW =            718.39
                WELLS =           2768.43                  WELLS =            509.56

   INFLOWS - OUTFLOWS =        1545222.97     INFLOWS - OUTFLOWS =         747836.49
             --------                                   --------

 TOTAL STORAGE CHANGE =        1545233.90         STORAGE CHANGE =         747839.20
       --------------                             --------------
         LAND SURFACE =        1035445.73           LAND SURFACE =         591129.48
            SOIL ZONE =         564744.03              SOIL ZONE =         169728.56
     UNSATURATED ZONE =         -19719.00       UNSATURATED ZONE =          -4532.27
       SATURATED ZONE =         -35236.86         SATURATED ZONE =          -8486.58

 OVERALL BUDGET ERROR =            -10.93           BUDGET ERROR =             -2.71


  PERCENT DISCREPANCY =             -0.00    PERCENT DISCREPANCY =             -0.00



1
 SUMMARY VOLUMETRIC BUDGET FOR GSFLOW 
 DATE: 11 01 1983              CUMULATIVE TIME STEP:    1126
 MODFLOW STRESS PERIOD      2     CURRENT TIME STEP:       5     ITERATIONS:       9

 -----------------------------------------------------------------------------------

   CUMULATIVE VOLUMES               L**3   RATES FOR THIS TIME STEP           L**3/T
   ------------------                      ------------------------

                                     IN                                         IN
                                     --                                         --
        PRECIPITATION =        2216031.57          PRECIPITATION =         501946.67
           STREAMFLOW =                               STREAMFLOW =                  
     GW BOUNDARY FLOW =                         GW BOUNDARY FLOW =                  
                WELLS =            127.86                  WELLS =             27.65


                                    OUT                                        OUT
                                    ---                                        ---
   EVAPOTRANSPIRATION =         145455.67     EVAPOTRANSPIRATION =          18226.90
           STREAMFLOW =          51434.59             STREAMFLOW =          15341.26
     GW BOUNDARY FLOW =           3590.33       GW BOUNDARY FLOW =            718.73
                WELLS =           3278.23                  WELLS =            509.80

   INFLOWS - OUTFLOWS =        2012400.60     INFLOWS - OUTFLOWS =         467177.63
             --------                                   --------

 TOTAL STORAGE CHANGE =        2012414.12         STORAGE CHANGE =         467180.22
       --------------                             --------------
         LAND SURFACE =        1339817.23           LAND SURFACE =         304371.50
            SOIL ZONE =         740398.87              SOIL ZONE =         175654.84
     UNSATURATED ZONE =         -24071.64       UNSATURATED ZONE =          -4352.65
       SATURATED ZONE =         -43730.34         SATURATED ZONE =          -8493.48

 OVERALL BUDGET ERROR =            -13.51           BUDGET ERROR =             -2.58


  PERCENT DISCREPANCY =             -0.00    PERCENT DISCREPANCY =             -0.00



1
 SUMMARY VOLUMETRIC BUDGET FOR GSFLOW 
 DATE: 11 02 1983              CUMULATIVE TIME STEP:    1127
 MODFLOW STRESS PERIOD      2     CURRENT TIME STEP:       6     ITERATIONS:       9

 -----------------------------------------------------------------------------------

   CUMULATIVE VOLUMES               L**3   RATES FOR THIS TIME STEP           L**3/T
   ------------------                      ------------------------

                                     IN                                         IN
                                     --                                         --
        PRECIPITATION =        2356166.79          PRECIPITATION =         140135.23
           STREAMFLOW =                               STREAMFLOW =                  
     GW BOUNDARY FLOW =                         GW BOUNDARY FLOW =                  
                WELLS =            155.50                  WELLS =             27.64


                                    OUT                                        OUT
                                    ---                                        ---
   EVAPOTRANSPIRATION =         165378.87     EVAPOTRANSPIRATION =          19923.20
           STREAMFLOW =          70925.18             STREAMFLOW =          19490.59
     GW BOUNDARY FLOW =           4309.49       GW BOUNDARY FLOW =            719.16
                WELLS =           3787.39                  WELLS =            509.15

   INFLOWS - OUTFLOWS =        2111921.37     INFLOWS - OUTFLOWS =          99520.76
             --------                                   --------

 TOTAL STORAGE CHANGE =        2111937.42         STORAGE CHANGE =          99523.30
       --------------                             --------------
         LAND SURFACE =        1221556.82           LAND SURFACE =        -118260.42
            SOIL ZONE =         970163.82              SOIL ZONE =         229764.95
     UNSATURATED ZONE =         -28033.46       UNSATURATED ZONE =          -3961.82
       SATURATED ZONE =         -51749.76         SATURATED ZONE =          -8019.41

 OVERALL BUDGET ERROR =            -16.05           BUDGET ERROR =             -2.53


  PERCENT DISCREPANCY =             -0.00    PERCENT DISCREPANCY =             -0.00



1
 SUMMARY VOLUMETRIC BUDGET FOR GSFLOW 
 DATE: 11 03 1983              CUMULATIVE TIME STEP:    1128
 MODFLOW STRESS PERIOD      2     CURRENT TIME STEP:       7     ITERATIONS:       9

 -----------------------------------------------------------------------------------

   CUMULATIVE VOLUMES               L**3   RATES FOR THIS TIME STEP           L**3/T
   ------------------                      ------------------------

                                     IN                                         IN
                                     --                                         --
        PRECIPITATION =        2356166.79          PRECIPITATION =                  
           STREAMFLOW =                               STREAMFLOW =                  
     GW BOUNDARY FLOW =                         GW BOUNDARY FLOW =                  
                WELLS =            182.99                  WELLS =             27.49


                                    OUT                                        OUT
                                    ---                                        ---
   EVAPOTRANSPIRATION =         228880.65     EVAPOTRANSPIRATION =          63501.78
           STREAMFLOW =          93251.43             STREAMFLOW =          22326.25
     GW BOUNDARY FLOW =           5029.06       GW BOUNDARY FLOW =            719.57
                WELLS =           4295.78                  WELLS =            508.39

   INFLOWS - OUTFLOWS =        2024892.87     INFLOWS - OUTFLOWS =         -87028.50
             --------                                   --------

 TOTAL STORAGE CHANGE =        2024911.34         STORAGE CHANGE =         -87026.08
       --------------                             --------------
         LAND SURFACE =         971630.41           LAND SURFACE =        -249926.41
            SOIL ZONE =        1144277.73              SOIL ZONE =         174113.91
     UNSATURATED ZONE =         -31333.14       UNSATURATED ZONE =          -3299.68
       SATURATED ZONE =         -59663.66         SATURATED ZONE =          -7913.90

 OVERALL BUDGET ERROR =            -18.47           BUDGET ERROR =             -2.42


  PERCENT DISCREPANCY =             -0.00    PERCENT DISCREPANCY =             -0.00



 Number of time steps:      7;  Number of non-convergence:   0
 MF iterations:            63;  SZ iterations:              63
 Average MF iterations:  9.00;  Average SZ iterations:    9.00
 Maximum MF iterations:     9;  Maximum SZ iterations:       9

MF iteration distribution:      0    0    0    0    0    0    0    0    7    0
                                0    0    0    0    0    0    0    0    0    0
                                0    0    0    0    0    0    0    0    0    0
                                0    0    0    0    0    0    0    0    0    0
                                0    0    0    0    0    0    0    0    0    0
                                0    0    0    0    0    0    0    0    0    0
                                0    0    0    0    0    0    0    0    0    0
                                0    0    0    0    0    0    0    0    0    0

SZ computation distribution:    0    0    0    0    0    0    0    0    7    0
                                0    0    0    0    0    0    0    0    0    0
                                0    0    0    0    0    0    0    0    0    0
                                0    0    0    0    0    0    0    0    0    0
                                0    0    0    0    0    0    0    0    0    0
                                0    0    0    0    0    0    0    0    0    0
                                0    0    0    0    0    0    0    0    0    0
                                0    0    0    0    0    0    0    0    0    0

