1
 SUMMARY VOLUMETRIC BUDGET FOR GSFLOW 
 DATE: 10 13 1983              CUMULATIVE TIME STEP:    1107
 MODFLOW STRESS PERIOD      2     CURRENT TIME STEP:       7     ITERATIONS:      17

 -----------------------------------------------------------------------------------

   CUMULATIVE VOLUMES               L**3   RATES FOR THIS TIME STEP           L**3/T
   ------------------                      ------------------------

                                     IN                                         IN
                                     --                                         --
        PRECIPITATION =                            PRECIPITATION =                  
           STREAMFLOW =                               STREAMFLOW =                  
     GW BOUNDARY FLOW =                         GW BOUNDARY FLOW =                  
                WELLS =             35.03                  WELLS =             33.08


                                    OUT                                        OUT
                                    ---                                        ---
   EVAPOTRANSPIRATION =         357970.83     EVAPOTRANSPIRATION =          55404.18
           STREAMFLOW =          36450.74             STREAMFLOW =           4605.91
     GW BOUNDARY FLOW =           5022.02       GW BOUNDARY FLOW =            717.31
                WELLS =          11232.99                  WELLS =           1277.15

   INFLOWS - OUTFLOWS =        -410641.56     INFLOWS - OUTFLOWS =         -61971.48
             --------                                   --------

 TOTAL STORAGE CHANGE =        -410626.89         STORAGE CHANGE =         -61969.04
       --------------                             --------------
         LAND SURFACE =         -37517.00           LAND SURFACE =          -6137.47
            SOIL ZONE =        -265731.37              SOIL ZONE =         -40452.34
     UNSATURATED ZONE =         -37667.21       UNSATURATED ZONE =          -5737.44
       SATURATED ZONE =         -69711.32         SATURATED ZONE =          -9641.79

 OVERALL BUDGET ERROR =            -14.67           BUDGET ERROR =             -2.44


  PERCENT DISCREPANCY =             -0.00    PERCENT DISCREPANCY =             -0.00



