1
 SUMMARY VOLUMETRIC BUDGET FOR GSFLOW 
 DATE: 09 22 1983              CUMULATIVE TIME STEP:    1086
 MODFLOW STRESS PERIOD      2     CURRENT TIME STEP:       7     ITERATIONS:      10

 -----------------------------------------------------------------------------------

   CUMULATIVE VOLUMES               L**3   RATES FOR THIS TIME STEP           L**3/T
   ------------------                      ------------------------

                                     IN                                         IN
                                     --                                         --
        PRECIPITATION =         297317.16          PRECIPITATION =         297317.16
           STREAMFLOW =                               STREAMFLOW =                  
     GW BOUNDARY FLOW =                         GW BOUNDARY FLOW =                  
                WELLS =             91.34                  WELLS =             12.52


                                    OUT                                        OUT
                                    ---                                        ---
   EVAPOTRANSPIRATION =         261482.31     EVAPOTRANSPIRATION =          36986.29
           STREAMFLOW =          47140.73             STREAMFLOW =          10994.68
     GW BOUNDARY FLOW =           5013.38       GW BOUNDARY FLOW =            716.73
                WELLS =           3088.93                  WELLS =            433.84

   INFLOWS - OUTFLOWS =         -19316.84     INFLOWS - OUTFLOWS =         248198.13
             --------                                   --------

 TOTAL STORAGE CHANGE =         -19301.38         STORAGE CHANGE =         248200.24
       --------------                             --------------
         LAND SURFACE =         -61351.30           LAND SURFACE =          22692.67
            SOIL ZONE =         142726.40              SOIL ZONE =         238620.43
     UNSATURATED ZONE =         -42016.45       UNSATURATED ZONE =          -5641.51
       SATURATED ZONE =         -58660.02         SATURATED ZONE =          -7471.35

 OVERALL BUDGET ERROR =            -15.46           BUDGET ERROR =             -2.10


  PERCENT DISCREPANCY =             -0.00    PERCENT DISCREPANCY =             -0.00



