1
 SUMMARY VOLUMETRIC BUDGET FOR GSFLOW 
 DATE: 10 01 1980              CUMULATIVE TIME STEP:       1
 MODFLOW STRESS PERIOD      2     CURRENT TIME STEP:       1     ITERATIONS:      12

 -----------------------------------------------------------------------------------

   CUMULATIVE VOLUMES               L**3   RATES FOR THIS TIME STEP           L**3/T
   ------------------                      ------------------------

                                     IN                                         IN
                                     --                                         --
        PRECIPITATION =                            PRECIPITATION =                  
           STREAMFLOW =                               STREAMFLOW =                  
     GW BOUNDARY FLOW =                         GW BOUNDARY FLOW =                  
                WELLS =              0.37                  WELLS =              0.37


                                    OUT                                        OUT
                                    ---                                        ---
   EVAPOTRANSPIRATION =           7483.28     EVAPOTRANSPIRATION =           7483.28
           STREAMFLOW =           6143.24             STREAMFLOW =           6143.24
     GW BOUNDARY FLOW =            724.05       GW BOUNDARY FLOW =            724.05
                WELLS =           2621.53                  WELLS =           2621.53

   INFLOWS - OUTFLOWS =         -16971.73     INFLOWS - OUTFLOWS =         -16971.73
             --------                                   --------

 TOTAL STORAGE CHANGE =         -16939.16         STORAGE CHANGE =         -16939.16
       --------------                             --------------
         LAND SURFACE =                             LAND SURFACE =                  
            SOIL ZONE =           8379.39              SOIL ZONE =           8379.39
     UNSATURATED ZONE =         -20923.51       UNSATURATED ZONE =         -20923.51
       SATURATED ZONE =          -4395.03         SATURATED ZONE =          -4395.03

 OVERALL BUDGET ERROR =            -32.57           BUDGET ERROR =            -32.57


  PERCENT DISCREPANCY =             -0.19    PERCENT DISCREPANCY =             -0.19



1
 SUMMARY VOLUMETRIC BUDGET FOR GSFLOW 
 DATE: 10 02 1980              CUMULATIVE TIME STEP:       2
 MODFLOW STRESS PERIOD      2     CURRENT TIME STEP:       2     ITERATIONS:       7

 -----------------------------------------------------------------------------------

   CUMULATIVE VOLUMES               L**3   RATES FOR THIS TIME STEP           L**3/T
   ------------------                      ------------------------

                                     IN                                         IN
                                     --                                         --
        PRECIPITATION =                            PRECIPITATION =                  
           STREAMFLOW =                               STREAMFLOW =                  
     GW BOUNDARY FLOW =                         GW BOUNDARY FLOW =                  
                WELLS =              0.73                  WELLS =              0.37


                                    OUT                                        OUT
                                    ---                                        ---
   EVAPOTRANSPIRATION =          15991.93     EVAPOTRANSPIRATION =           8508.65
           STREAMFLOW =          12102.55             STREAMFLOW =           5959.31
     GW BOUNDARY FLOW =           1448.05       GW BOUNDARY FLOW =            724.01
                WELLS =           5107.45                  WELLS =           2485.92

   INFLOWS - OUTFLOWS =         -34649.24     INFLOWS - OUTFLOWS =         -17677.52
             --------                                   --------

 TOTAL STORAGE CHANGE =         -34584.25         STORAGE CHANGE =         -17645.09
       --------------                             --------------
         LAND SURFACE =                             LAND SURFACE =                  
            SOIL ZONE =          15661.16              SOIL ZONE =           7281.77
     UNSATURATED ZONE =         -41733.55       UNSATURATED ZONE =         -20810.03
       SATURATED ZONE =          -8511.87         SATURATED ZONE =          -4116.83

 OVERALL BUDGET ERROR =            -64.99           BUDGET ERROR =            -32.42


  PERCENT DISCREPANCY =             -0.19    PERCENT DISCREPANCY =             -0.18



1
 SUMMARY VOLUMETRIC BUDGET FOR GSFLOW 
 DATE: 10 03 1980              CUMULATIVE TIME STEP:       3
 MODFLOW STRESS PERIOD      2     CURRENT TIME STEP:       3     ITERATIONS:       7

 -----------------------------------------------------------------------------------

   CUMULATIVE VOLUMES               L**3   RATES FOR THIS TIME STEP           L**3/T
   ------------------                      ------------------------

                                     IN                                         IN
                                     --                                         --
        PRECIPITATION =                            PRECIPITATION =                  
           STREAMFLOW =                               STREAMFLOW =                  
     GW BOUNDARY FLOW =                         GW BOUNDARY FLOW =                  
                WELLS =              1.11                  WELLS =              0.37


                                    OUT                                        OUT
                                    ---                                        ---
   EVAPOTRANSPIRATION =          24719.01     EVAPOTRANSPIRATION =           8727.08
           STREAMFLOW =          17955.38             STREAMFLOW =           5852.83
     GW BOUNDARY FLOW =           2172.03       GW BOUNDARY FLOW =            723.97
                WELLS =           7542.64                  WELLS =           2435.19

   INFLOWS - OUTFLOWS =         -52387.95     INFLOWS - OUTFLOWS =         -17738.70
             --------                                   --------

 TOTAL STORAGE CHANGE =         -52290.72         STORAGE CHANGE =         -17706.47
       --------------                             --------------
         LAND SURFACE =                             LAND SURFACE =                  
            SOIL ZONE =          22675.61              SOIL ZONE =           7014.45
     UNSATURATED ZONE =         -62448.72       UNSATURATED ZONE =         -20715.17
       SATURATED ZONE =         -12517.61         SATURATED ZONE =          -4005.75

 OVERALL BUDGET ERROR =            -97.23           BUDGET ERROR =            -32.23


  PERCENT DISCREPANCY =             -0.19    PERCENT DISCREPANCY =             -0.18



1
 SUMMARY VOLUMETRIC BUDGET FOR GSFLOW 
 DATE: 10 04 1980              CUMULATIVE TIME STEP:       4
 MODFLOW STRESS PERIOD      2     CURRENT TIME STEP:       4     ITERATIONS:       8

 -----------------------------------------------------------------------------------

   CUMULATIVE VOLUMES               L**3   RATES FOR THIS TIME STEP           L**3/T
   ------------------                      ------------------------

                                     IN                                         IN
                                     --                                         --
        PRECIPITATION =                            PRECIPITATION =                  
           STREAMFLOW =                               STREAMFLOW =                  
     GW BOUNDARY FLOW =                         GW BOUNDARY FLOW =                  
                WELLS =              1.48                  WELLS =              0.37


                                    OUT                                        OUT
                                    ---                                        ---
   EVAPOTRANSPIRATION =          33988.00     EVAPOTRANSPIRATION =           9269.00
           STREAMFLOW =          23743.34             STREAMFLOW =           5787.96
     GW BOUNDARY FLOW =           2895.97       GW BOUNDARY FLOW =            723.94
                WELLS =           9940.24                  WELLS =           2397.60

   INFLOWS - OUTFLOWS =         -70566.08     INFLOWS - OUTFLOWS =         -18178.13
             --------                                   --------

 TOTAL STORAGE CHANGE =         -70436.89         STORAGE CHANGE =         -18146.18
       --------------                             --------------
         LAND SURFACE =                             LAND SURFACE =                  
            SOIL ZONE =          29107.80              SOIL ZONE =           6432.19
     UNSATURATED ZONE =         -83055.10       UNSATURATED ZONE =         -20606.38
       SATURATED ZONE =         -16489.60         SATURATED ZONE =          -3971.99

 OVERALL BUDGET ERROR =           -129.18           BUDGET ERROR =            -31.96


  PERCENT DISCREPANCY =             -0.18    PERCENT DISCREPANCY =             -0.18



1
 SUMMARY VOLUMETRIC BUDGET FOR GSFLOW 
 DATE: 10 05 1980              CUMULATIVE TIME STEP:       5
 MODFLOW STRESS PERIOD      2     CURRENT TIME STEP:       5     ITERATIONS:       8

 -----------------------------------------------------------------------------------

   CUMULATIVE VOLUMES               L**3   RATES FOR THIS TIME STEP           L**3/T
   ------------------                      ------------------------

                                     IN                                         IN
                                     --                                         --
        PRECIPITATION =                            PRECIPITATION =                  
           STREAMFLOW =                               STREAMFLOW =                  
     GW BOUNDARY FLOW =                         GW BOUNDARY FLOW =                  
                WELLS =              1.85                  WELLS =              0.37


                                    OUT                                        OUT
                                    ---                                        ---
   EVAPOTRANSPIRATION =          45282.52     EVAPOTRANSPIRATION =          11294.51
           STREAMFLOW =          29488.21             STREAMFLOW =           5744.87
     GW BOUNDARY FLOW =           3619.87       GW BOUNDARY FLOW =            723.90
                WELLS =          12304.29                  WELLS =           2364.05

   INFLOWS - OUTFLOWS =         -90693.04     INFLOWS - OUTFLOWS =         -20126.96
             --------                                   --------

 TOTAL STORAGE CHANGE =         -90532.21         STORAGE CHANGE =         -20095.32
       --------------                             --------------
         LAND SURFACE =                             LAND SURFACE =                  
            SOIL ZONE =          33478.96              SOIL ZONE =           4371.16
     UNSATURATED ZONE =        -103548.08       UNSATURATED ZONE =         -20492.98
       SATURATED ZONE =         -20463.10         SATURATED ZONE =          -3973.50

 OVERALL BUDGET ERROR =           -160.82           BUDGET ERROR =            -31.64


  PERCENT DISCREPANCY =             -0.18    PERCENT DISCREPANCY =             -0.16



1
 SUMMARY VOLUMETRIC BUDGET FOR GSFLOW 
 DATE: 10 06 1980              CUMULATIVE TIME STEP:       6
 MODFLOW STRESS PERIOD      2     CURRENT TIME STEP:       6     ITERATIONS:      10

 -----------------------------------------------------------------------------------

   CUMULATIVE VOLUMES               L**3   RATES FOR THIS TIME STEP           L**3/T
   ------------------                      ------------------------

                                     IN                                         IN
                                     --                                         --
        PRECIPITATION =                            PRECIPITATION =                  
           STREAMFLOW =                               STREAMFLOW =                  
     GW BOUNDARY FLOW =                         GW BOUNDARY FLOW =                  
                WELLS =              2.23                  WELLS =              0.38


                                    OUT                                        OUT
                                    ---                                        ---
   EVAPOTRANSPIRATION =          56889.22     EVAPOTRANSPIRATION =          11606.71
           STREAMFLOW =          35201.71             STREAMFLOW =           5713.50
     GW BOUNDARY FLOW =           4343.73       GW BOUNDARY FLOW =            723.85
                WELLS =          14637.15                  WELLS =           2332.86

   INFLOWS - OUTFLOWS =        -111069.58     INFLOWS - OUTFLOWS =         -20376.54
             --------                                   --------

 TOTAL STORAGE CHANGE =        -110877.33         STORAGE CHANGE =         -20345.11
       --------------                             --------------
         LAND SURFACE =                             LAND SURFACE =                  
            SOIL ZONE =          37505.63              SOIL ZONE =           4026.67
     UNSATURATED ZONE =        -123920.73       UNSATURATED ZONE =         -20372.66
       SATURATED ZONE =         -24462.22         SATURATED ZONE =          -3999.13

 OVERALL BUDGET ERROR =           -192.25           BUDGET ERROR =            -31.43


  PERCENT DISCREPANCY =             -0.17    PERCENT DISCREPANCY =             -0.15



1
 SUMMARY VOLUMETRIC BUDGET FOR GSFLOW 
 DATE: 10 07 1980              CUMULATIVE TIME STEP:       7
 MODFLOW STRESS PERIOD      2     CURRENT TIME STEP:       7     ITERATIONS:      10

 -----------------------------------------------------------------------------------

   CUMULATIVE VOLUMES               L**3   RATES FOR THIS TIME STEP           L**3/T
   ------------------                      ------------------------

                                     IN                                         IN
                                     --                                         --
        PRECIPITATION =                            PRECIPITATION =                  
           STREAMFLOW =                               STREAMFLOW =                  
     GW BOUNDARY FLOW =                         GW BOUNDARY FLOW =                  
                WELLS =              2.61                  WELLS =              0.38


                                    OUT                                        OUT
                                    ---                                        ---
   EVAPOTRANSPIRATION =          66255.19     EVAPOTRANSPIRATION =           9365.96
           STREAMFLOW =          40890.25             STREAMFLOW =           5688.54
     GW BOUNDARY FLOW =           5067.54       GW BOUNDARY FLOW =            723.82
                WELLS =          16940.66                  WELLS =           2303.51

   INFLOWS - OUTFLOWS =        -129151.03     INFLOWS - OUTFLOWS =         -18081.45
             --------                                   --------

 TOTAL STORAGE CHANGE =        -128927.62         STORAGE CHANGE =         -18050.29
       --------------                             --------------
         LAND SURFACE =                             LAND SURFACE =                  
            SOIL ZONE =          43743.66              SOIL ZONE =           6238.03
     UNSATURATED ZONE =        -144187.06       UNSATURATED ZONE =         -20266.32
       SATURATED ZONE =         -28484.22         SATURATED ZONE =          -4022.00

 OVERALL BUDGET ERROR =           -223.41           BUDGET ERROR =            -31.16


  PERCENT DISCREPANCY =             -0.17    PERCENT DISCREPANCY =             -0.17



1
 SUMMARY VOLUMETRIC BUDGET FOR GSFLOW 
 DATE: 10 08 1980              CUMULATIVE TIME STEP:       8
 MODFLOW STRESS PERIOD      2     CURRENT TIME STEP:       8     ITERATIONS:      10

 -----------------------------------------------------------------------------------

   CUMULATIVE VOLUMES               L**3   RATES FOR THIS TIME STEP           L**3/T
   ------------------                      ------------------------

                                     IN                                         IN
                                     --                                         --
        PRECIPITATION =                            PRECIPITATION =                  
           STREAMFLOW =                               STREAMFLOW =                  
     GW BOUNDARY FLOW =                         GW BOUNDARY FLOW =                  
                WELLS =              2.98                  WELLS =              0.38


                                    OUT                                        OUT
                                    ---                                        ---
   EVAPOTRANSPIRATION =          76222.34     EVAPOTRANSPIRATION =           9967.15
           STREAMFLOW =          46556.64             STREAMFLOW =           5666.39
     GW BOUNDARY FLOW =           5791.32       GW BOUNDARY FLOW =            723.78
                WELLS =          19216.44                  WELLS =           2275.78

   INFLOWS - OUTFLOWS =        -147783.76     INFLOWS - OUTFLOWS =         -18632.73
             --------                                   --------

 TOTAL STORAGE CHANGE =        -147529.43         STORAGE CHANGE =         -18601.81
       --------------                             --------------
         LAND SURFACE =                             LAND SURFACE =                  
            SOIL ZONE =          49352.91              SOIL ZONE =           5609.25
     UNSATURATED ZONE =        -164338.43       UNSATURATED ZONE =         -20151.37
       SATURATED ZONE =         -32543.92         SATURATED ZONE =          -4059.69

 OVERALL BUDGET ERROR =           -254.33           BUDGET ERROR =            -30.92


  PERCENT DISCREPANCY =             -0.17    PERCENT DISCREPANCY =             -0.17



1
 SUMMARY VOLUMETRIC BUDGET FOR GSFLOW 
 DATE: 10 09 1980              CUMULATIVE TIME STEP:       9
 MODFLOW STRESS PERIOD      2     CURRENT TIME STEP:       9     ITERATIONS:      10

 -----------------------------------------------------------------------------------

   CUMULATIVE VOLUMES               L**3   RATES FOR THIS TIME STEP           L**3/T
   ------------------                      ------------------------

                                     IN                                         IN
                                     --                                         --
        PRECIPITATION =                            PRECIPITATION =                  
           STREAMFLOW =                               STREAMFLOW =                  
     GW BOUNDARY FLOW =                         GW BOUNDARY FLOW =                  
                WELLS =              3.36                  WELLS =              0.38


                                    OUT                                        OUT
                                    ---                                        ---
   EVAPOTRANSPIRATION =          85556.95     EVAPOTRANSPIRATION =           9334.61
           STREAMFLOW =          52201.92             STREAMFLOW =           5645.28
     GW BOUNDARY FLOW =           6515.08       GW BOUNDARY FLOW =            723.76
                WELLS =          21465.93                  WELLS =           2249.50

   INFLOWS - OUTFLOWS =        -165736.53     INFLOWS - OUTFLOWS =         -17952.77
             --------                                   --------

 TOTAL STORAGE CHANGE =        -165451.48         STORAGE CHANGE =         -17922.05
       --------------                             --------------
         LAND SURFACE =                             LAND SURFACE =                  
            SOIL ZONE =          55568.32              SOIL ZONE =           6215.41
     UNSATURATED ZONE =        -184380.07       UNSATURATED ZONE =         -20041.64
       SATURATED ZONE =         -36639.73         SATURATED ZONE =          -4095.82

 OVERALL BUDGET ERROR =           -285.05           BUDGET ERROR =            -30.72


  PERCENT DISCREPANCY =             -0.17    PERCENT DISCREPANCY =             -0.17



1
 SUMMARY VOLUMETRIC BUDGET FOR GSFLOW 
 DATE: 10 10 1980              CUMULATIVE TIME STEP:      10
 MODFLOW STRESS PERIOD      2     CURRENT TIME STEP:      10     ITERATIONS:      10

 -----------------------------------------------------------------------------------

   CUMULATIVE VOLUMES               L**3   RATES FOR THIS TIME STEP           L**3/T
   ------------------                      ------------------------

                                     IN                                         IN
                                     --                                         --
        PRECIPITATION =                            PRECIPITATION =                  
           STREAMFLOW =                               STREAMFLOW =                  
     GW BOUNDARY FLOW =                         GW BOUNDARY FLOW =                  
                WELLS =              3.74                  WELLS =              0.38


                                    OUT                                        OUT
                                    ---                                        ---
   EVAPOTRANSPIRATION =          95160.03     EVAPOTRANSPIRATION =           9603.08
           STREAMFLOW =          57825.31             STREAMFLOW =           5623.39
     GW BOUNDARY FLOW =           7238.82       GW BOUNDARY FLOW =            723.73
                WELLS =          23690.49                  WELLS =           2224.55

   INFLOWS - OUTFLOWS =        -183910.90     INFLOWS - OUTFLOWS =         -18174.37
             --------                                   --------

 TOTAL STORAGE CHANGE =        -183595.43         STORAGE CHANGE =         -18143.95
       --------------                             --------------
         LAND SURFACE =                             LAND SURFACE =                  
            SOIL ZONE =          61489.81              SOIL ZONE =           5921.49
     UNSATURATED ZONE =        -204310.79       UNSATURATED ZONE =         -19930.73
       SATURATED ZONE =         -40774.44         SATURATED ZONE =          -4134.71

 OVERALL BUDGET ERROR =           -315.47           BUDGET ERROR =            -30.42


  PERCENT DISCREPANCY =             -0.17    PERCENT DISCREPANCY =             -0.17



1
 SUMMARY VOLUMETRIC BUDGET FOR GSFLOW 
 DATE: 10 11 1980              CUMULATIVE TIME STEP:      11
 MODFLOW STRESS PERIOD      2     CURRENT TIME STEP:      11     ITERATIONS:      10

 -----------------------------------------------------------------------------------

   CUMULATIVE VOLUMES               L**3   RATES FOR THIS TIME STEP           L**3/T
   ------------------                      ------------------------

                                     IN                                         IN
                                     --                                         --
        PRECIPITATION =                            PRECIPITATION =                  
           STREAMFLOW =                               STREAMFLOW =                  
     GW BOUNDARY FLOW =                         GW BOUNDARY FLOW =                  
                WELLS =              4.11                  WELLS =              0.38


                                    OUT                                        OUT
                                    ---                                        ---
   EVAPOTRANSPIRATION =         103860.77     EVAPOTRANSPIRATION =           8700.74
           STREAMFLOW =          63424.78             STREAMFLOW =           5599.47
     GW BOUNDARY FLOW =           7962.53       GW BOUNDARY FLOW =            723.71
                WELLS =          25891.34                  WELLS =           2200.85

   INFLOWS - OUTFLOWS =        -201135.30     INFLOWS - OUTFLOWS =         -17224.40
             --------                                   --------

 TOTAL STORAGE CHANGE =        -200789.76         STORAGE CHANGE =         -17194.33
       --------------                             --------------
         LAND SURFACE =                             LAND SURFACE =                  
            SOIL ZONE =          68288.79              SOIL ZONE =           6798.98
     UNSATURATED ZONE =        -224135.21       UNSATURATED ZONE =         -19824.41
       SATURATED ZONE =         -44943.34         SATURATED ZONE =          -4168.90

 OVERALL BUDGET ERROR =           -345.54           BUDGET ERROR =            -30.06


  PERCENT DISCREPANCY =             -0.17    PERCENT DISCREPANCY =             -0.17



1
 SUMMARY VOLUMETRIC BUDGET FOR GSFLOW 
 DATE: 10 12 1980              CUMULATIVE TIME STEP:      12
 MODFLOW STRESS PERIOD      2     CURRENT TIME STEP:      12     ITERATIONS:      10

 -----------------------------------------------------------------------------------

   CUMULATIVE VOLUMES               L**3   RATES FOR THIS TIME STEP           L**3/T
   ------------------                      ------------------------

                                     IN                                         IN
                                     --                                         --
        PRECIPITATION =         229249.05          PRECIPITATION =         229249.05
           STREAMFLOW =                               STREAMFLOW =                  
     GW BOUNDARY FLOW =                         GW BOUNDARY FLOW =                  
                WELLS =              4.49                  WELLS =              0.38


                                    OUT                                        OUT
                                    ---                                        ---
   EVAPOTRANSPIRATION =         110089.09     EVAPOTRANSPIRATION =           6228.32
           STREAMFLOW =          71165.66             STREAMFLOW =           7740.88
     GW BOUNDARY FLOW =           8686.42       GW BOUNDARY FLOW =            723.89
                WELLS =          28069.65                  WELLS =           2178.31

   INFLOWS - OUTFLOWS =          11242.73     INFLOWS - OUTFLOWS =         212378.02
             --------                                   --------

 TOTAL STORAGE CHANGE =          11618.24         STORAGE CHANGE =         212408.00
       --------------                             --------------
         LAND SURFACE =          74128.68           LAND SURFACE =          74128.68
            SOIL ZONE =         230074.71              SOIL ZONE =         161785.92
     UNSATURATED ZONE =        -243893.44       UNSATURATED ZONE =         -19758.23
       SATURATED ZONE =         -48691.70         SATURATED ZONE =          -3748.36

 OVERALL BUDGET ERROR =           -375.51           BUDGET ERROR =            -29.98


  PERCENT DISCREPANCY =             -0.16    PERCENT DISCREPANCY =             -0.01



1
 SUMMARY VOLUMETRIC BUDGET FOR GSFLOW 
 DATE: 10 13 1980              CUMULATIVE TIME STEP:      13
 MODFLOW STRESS PERIOD      2     CURRENT TIME STEP:      13     ITERATIONS:      10

 -----------------------------------------------------------------------------------

   CUMULATIVE VOLUMES               L**3   RATES FOR THIS TIME STEP           L**3/T
   ------------------                      ------------------------

                                     IN                                         IN
                                     --                                         --
        PRECIPITATION =         229249.05          PRECIPITATION =                  
           STREAMFLOW =                               STREAMFLOW =                  
     GW BOUNDARY FLOW =                         GW BOUNDARY FLOW =                  
                WELLS =              4.87                  WELLS =              0.38


                                    OUT                                        OUT
                                    ---                                        ---
   EVAPOTRANSPIRATION =         137884.64     EVAPOTRANSPIRATION =          27795.55
           STREAMFLOW =          77346.88             STREAMFLOW =           6181.22
     GW BOUNDARY FLOW =           9410.28       GW BOUNDARY FLOW =            723.85
                WELLS =          30226.48                  WELLS =           2156.83

   INFLOWS - OUTFLOWS =         -25614.35     INFLOWS - OUTFLOWS =         -36857.08
             --------                                   --------

 TOTAL STORAGE CHANGE =         -25209.14         STORAGE CHANGE =         -36827.38
       --------------                             --------------
         LAND SURFACE =          44110.59           LAND SURFACE =         -30018.08
            SOIL ZONE =         247064.29              SOIL ZONE =          16989.58
     UNSATURATED ZONE =        -263468.89       UNSATURATED ZONE =         -19575.45
       SATURATED ZONE =         -52915.13         SATURATED ZONE =          -4223.43

 OVERALL BUDGET ERROR =           -405.21           BUDGET ERROR =            -29.70


  PERCENT DISCREPANCY =             -0.16    PERCENT DISCREPANCY =             -0.08



1
 SUMMARY VOLUMETRIC BUDGET FOR GSFLOW 
 DATE: 10 14 1980              CUMULATIVE TIME STEP:      14
 MODFLOW STRESS PERIOD      2     CURRENT TIME STEP:      14     ITERATIONS:      11

 -----------------------------------------------------------------------------------

   CUMULATIVE VOLUMES               L**3   RATES FOR THIS TIME STEP           L**3/T
   ------------------                      ------------------------

                                     IN                                         IN
                                     --                                         --
        PRECIPITATION =         403289.47          PRECIPITATION =         174040.42
           STREAMFLOW =                               STREAMFLOW =                  
     GW BOUNDARY FLOW =                         GW BOUNDARY FLOW =                  
                WELLS =              5.25                  WELLS =              0.38


                                    OUT                                        OUT
                                    ---                                        ---
   EVAPOTRANSPIRATION =         143347.08     EVAPOTRANSPIRATION =           5462.45
           STREAMFLOW =          84323.41             STREAMFLOW =           6976.53
     GW BOUNDARY FLOW =          10134.18       GW BOUNDARY FLOW =            723.90
                WELLS =          32362.84                  WELLS =           2136.36

   INFLOWS - OUTFLOWS =         133127.21     INFLOWS - OUTFLOWS =         158741.56
             --------                                   --------

 TOTAL STORAGE CHANGE =         133561.96         STORAGE CHANGE =         158771.10
       --------------                             --------------
         LAND SURFACE =         150822.63           LAND SURFACE =         106712.04
            SOIL ZONE =         322712.97              SOIL ZONE =          75648.68
     UNSATURATED ZONE =        -282947.19       UNSATURATED ZONE =         -19478.30
       SATURATED ZONE =         -57026.45         SATURATED ZONE =          -4111.31

 OVERALL BUDGET ERROR =           -434.76           BUDGET ERROR =            -29.55


  PERCENT DISCREPANCY =             -0.11    PERCENT DISCREPANCY =             -0.02



1
 SUMMARY VOLUMETRIC BUDGET FOR GSFLOW 
 DATE: 10 15 1980              CUMULATIVE TIME STEP:      15
 MODFLOW STRESS PERIOD      2     CURRENT TIME STEP:      15     ITERATIONS:      11

 -----------------------------------------------------------------------------------

   CUMULATIVE VOLUMES               L**3   RATES FOR THIS TIME STEP           L**3/T
   ------------------                      ------------------------

                                     IN                                         IN
                                     --                                         --
        PRECIPITATION =         533754.90          PRECIPITATION =         130465.44
           STREAMFLOW =                               STREAMFLOW =                  
     GW BOUNDARY FLOW =                         GW BOUNDARY FLOW =                  
                WELLS =              5.63                  WELLS =              0.38


                                    OUT                                        OUT
                                    ---                                        ---
   EVAPOTRANSPIRATION =         147857.74     EVAPOTRANSPIRATION =           4510.66
           STREAMFLOW =          90509.94             STREAMFLOW =           6186.53
     GW BOUNDARY FLOW =          10858.03       GW BOUNDARY FLOW =            723.86
                WELLS =          34479.67                  WELLS =           2116.83

   INFLOWS - OUTFLOWS =         250055.15     INFLOWS - OUTFLOWS =         116927.94
             --------                                   --------

 TOTAL STORAGE CHANGE =         250519.25         STORAGE CHANGE =         116957.29
       --------------                             --------------
         LAND SURFACE =         274823.75           LAND SURFACE =         124001.11
            SOIL ZONE =         339339.50              SOIL ZONE =          16626.54
     UNSATURATED ZONE =        -302293.05       UNSATURATED ZONE =         -19345.86
       SATURATED ZONE =         -61350.95         SATURATED ZONE =          -4324.50

 OVERALL BUDGET ERROR =           -464.11           BUDGET ERROR =            -29.35


  PERCENT DISCREPANCY =             -0.09    PERCENT DISCREPANCY =             -0.02



1
 SUMMARY VOLUMETRIC BUDGET FOR GSFLOW 
 DATE: 10 16 1980              CUMULATIVE TIME STEP:      16
 MODFLOW STRESS PERIOD      2     CURRENT TIME STEP:      16     ITERATIONS:      11

 -----------------------------------------------------------------------------------

   CUMULATIVE VOLUMES               L**3   RATES FOR THIS TIME STEP           L**3/T
   ------------------                      ------------------------

                                     IN                                         IN
                                     --                                         --
        PRECIPITATION =         704278.11          PRECIPITATION =         170523.21
           STREAMFLOW =                               STREAMFLOW =                  
     GW BOUNDARY FLOW =                         GW BOUNDARY FLOW =                  
                WELLS =              6.01                  WELLS =              0.38


                                    OUT                                        OUT
                                    ---                                        ---
   EVAPOTRANSPIRATION =         152553.97     EVAPOTRANSPIRATION =           4696.23
           STREAMFLOW =          96559.11             STREAMFLOW =           6049.17
     GW BOUNDARY FLOW =          11581.84       GW BOUNDARY FLOW =            723.81
                WELLS =          36577.84                  WELLS =           2098.17

   INFLOWS - OUTFLOWS =         407011.35     INFLOWS - OUTFLOWS =         156956.21
             --------                                   --------

 TOTAL STORAGE CHANGE =         407504.50         STORAGE CHANGE =         156985.25
       --------------                             --------------
         LAND SURFACE =         437233.27           LAND SURFACE =         162409.52
            SOIL ZONE =         357539.63              SOIL ZONE =          18200.13
     UNSATURATED ZONE =        -321522.38       UNSATURATED ZONE =         -19229.33
       SATURATED ZONE =         -65746.02         SATURATED ZONE =          -4395.07

 OVERALL BUDGET ERROR =           -493.15           BUDGET ERROR =            -29.04


  PERCENT DISCREPANCY =             -0.07    PERCENT DISCREPANCY =             -0.02



1
 SUMMARY VOLUMETRIC BUDGET FOR GSFLOW 
 DATE: 10 17 1980              CUMULATIVE TIME STEP:      17
 MODFLOW STRESS PERIOD      2     CURRENT TIME STEP:      17     ITERATIONS:      11

 -----------------------------------------------------------------------------------

   CUMULATIVE VOLUMES               L**3   RATES FOR THIS TIME STEP           L**3/T
   ------------------                      ------------------------

                                     IN                                         IN
                                     --                                         --
        PRECIPITATION =         704278.11          PRECIPITATION =                  
           STREAMFLOW =                               STREAMFLOW =                  
     GW BOUNDARY FLOW =                         GW BOUNDARY FLOW =                  
                WELLS =              6.38                  WELLS =              0.38


                                    OUT                                        OUT
                                    ---                                        ---
   EVAPOTRANSPIRATION =         177451.86     EVAPOTRANSPIRATION =          24897.89
           STREAMFLOW =         103403.84             STREAMFLOW =           6844.73
     GW BOUNDARY FLOW =          12305.69       GW BOUNDARY FLOW =            723.84
                WELLS =          38658.18                  WELLS =           2080.34

   INFLOWS - OUTFLOWS =         372464.92     INFLOWS - OUTFLOWS =         -34546.43
             --------                                   --------

 TOTAL STORAGE CHANGE =         372986.95         STORAGE CHANGE =         -34517.55
       --------------                             --------------
         LAND SURFACE =         343820.49           LAND SURFACE =         -93412.78
            SOIL ZONE =         439846.14              SOIL ZONE =          82306.51
     UNSATURATED ZONE =        -340652.11       UNSATURATED ZONE =         -19129.73
       SATURATED ZONE =         -70027.56         SATURATED ZONE =          -4281.54

 OVERALL BUDGET ERROR =           -522.03           BUDGET ERROR =            -28.88


  PERCENT DISCREPANCY =             -0.07    PERCENT DISCREPANCY =             -0.08



1
 SUMMARY VOLUMETRIC BUDGET FOR GSFLOW 
 DATE: 10 18 1980              CUMULATIVE TIME STEP:      18
 MODFLOW STRESS PERIOD      2     CURRENT TIME STEP:      18     ITERATIONS:      11

 -----------------------------------------------------------------------------------

   CUMULATIVE VOLUMES               L**3   RATES FOR THIS TIME STEP           L**3/T
   ------------------                      ------------------------

                                     IN                                         IN
                                     --                                         --
        PRECIPITATION =         704278.11          PRECIPITATION =                  
           STREAMFLOW =                               STREAMFLOW =                  
     GW BOUNDARY FLOW =                         GW BOUNDARY FLOW =                  
                WELLS =              6.76                  WELLS =              0.38


                                    OUT                                        OUT
                                    ---                                        ---
   EVAPOTRANSPIRATION =         213256.40     EVAPOTRANSPIRATION =          35804.53
           STREAMFLOW =         111544.96             STREAMFLOW =           8141.12
     GW BOUNDARY FLOW =          13029.64       GW BOUNDARY FLOW =            723.96
                WELLS =          40720.98                  WELLS =           2062.80

   INFLOWS - OUTFLOWS =         325732.89     INFLOWS - OUTFLOWS =         -46732.03
             --------                                   --------

 TOTAL STORAGE CHANGE =         326283.55         STORAGE CHANGE =         -46703.40
       --------------                             --------------
         LAND SURFACE =         168514.44           LAND SURFACE =        -175306.05
            SOIL ZONE =         591586.96              SOIL ZONE =         151740.82
     UNSATURATED ZONE =        -359719.88       UNSATURATED ZONE =         -19067.77
       SATURATED ZONE =         -74097.97         SATURATED ZONE =          -4070.40

 OVERALL BUDGET ERROR =           -550.66           BUDGET ERROR =            -28.63


  PERCENT DISCREPANCY =             -0.08    PERCENT DISCREPANCY =             -0.06



1
 SUMMARY VOLUMETRIC BUDGET FOR GSFLOW 
 DATE: 10 19 1980              CUMULATIVE TIME STEP:      19
 MODFLOW STRESS PERIOD      2     CURRENT TIME STEP:      19     ITERATIONS:      11

 -----------------------------------------------------------------------------------

   CUMULATIVE VOLUMES               L**3   RATES FOR THIS TIME STEP           L**3/T
   ------------------                      ------------------------

                                     IN                                         IN
                                     --                                         --
        PRECIPITATION =         704278.11          PRECIPITATION =                  
           STREAMFLOW =                               STREAMFLOW =                  
     GW BOUNDARY FLOW =                         GW BOUNDARY FLOW =                  
                WELLS =              7.14                  WELLS =              0.38


                                    OUT                                        OUT
                                    ---                                        ---
   EVAPOTRANSPIRATION =         267551.50     EVAPOTRANSPIRATION =          54295.11
           STREAMFLOW =         119639.88             STREAMFLOW =           8094.92
     GW BOUNDARY FLOW =          13753.65       GW BOUNDARY FLOW =            724.01
                WELLS =          42765.38                  WELLS =           2044.40

   INFLOWS - OUTFLOWS =         260574.84     INFLOWS - OUTFLOWS =         -65158.05
             --------                                   --------

 TOTAL STORAGE CHANGE =         261153.75         STORAGE CHANGE =         -65129.80
       --------------                             --------------
         LAND SURFACE =          42653.20           LAND SURFACE =        -125861.24
            SOIL ZONE =         675405.78              SOIL ZONE =          83818.82
     UNSATURATED ZONE =        -378676.44       UNSATURATED ZONE =         -18956.56
       SATURATED ZONE =         -78228.79         SATURATED ZONE =          -4130.82

 OVERALL BUDGET ERROR =           -578.91           BUDGET ERROR =            -28.25


  PERCENT DISCREPANCY =             -0.08    PERCENT DISCREPANCY =             -0.04



1
 SUMMARY VOLUMETRIC BUDGET FOR GSFLOW 
 DATE: 10 20 1980              CUMULATIVE TIME STEP:      20
 MODFLOW STRESS PERIOD      2     CURRENT TIME STEP:      20     ITERATIONS:      10

 -----------------------------------------------------------------------------------

   CUMULATIVE VOLUMES               L**3   RATES FOR THIS TIME STEP           L**3/T
   ------------------                      ------------------------

                                     IN                                         IN
                                     --                                         --
        PRECIPITATION =         704278.11          PRECIPITATION =                  
           STREAMFLOW =                               STREAMFLOW =                  
     GW BOUNDARY FLOW =                         GW BOUNDARY FLOW =                  
                WELLS =             67.24                  WELLS =             60.10


                                    OUT                                        OUT
                                    ---                                        ---
   EVAPOTRANSPIRATION =         324050.35     EVAPOTRANSPIRATION =          56498.85
           STREAMFLOW =         126926.31             STREAMFLOW =           7286.44
     GW BOUNDARY FLOW =          14477.62       GW BOUNDARY FLOW =            723.97
                WELLS =          43921.85                  WELLS =           1156.47

   INFLOWS - OUTFLOWS =         194969.21     INFLOWS - OUTFLOWS =         -65605.62
             --------                                   --------

 TOTAL STORAGE CHANGE =         195576.07         STORAGE CHANGE =         -65577.68
       --------------                             --------------
         LAND SURFACE =          12430.77           LAND SURFACE =         -30222.43
            SOIL ZONE =         662431.97              SOIL ZONE =         -12973.80
     UNSATURATED ZONE =        -397473.95       UNSATURATED ZONE =         -18797.51
       SATURATED ZONE =         -81812.73         SATURATED ZONE =          -3583.94

 OVERALL BUDGET ERROR =           -606.86           BUDGET ERROR =            -27.95


  PERCENT DISCREPANCY =             -0.09    PERCENT DISCREPANCY =             -0.04



1
 SUMMARY VOLUMETRIC BUDGET FOR GSFLOW 
 DATE: 10 21 1980              CUMULATIVE TIME STEP:      21
 MODFLOW STRESS PERIOD      2     CURRENT TIME STEP:      21     ITERATIONS:      11

 -----------------------------------------------------------------------------------

   CUMULATIVE VOLUMES               L**3   RATES FOR THIS TIME STEP           L**3/T
   ------------------                      ------------------------

                                     IN                                         IN
                                     --                                         --
        PRECIPITATION =         704278.11          PRECIPITATION =                  
           STREAMFLOW =                               STREAMFLOW =                  
     GW BOUNDARY FLOW =                         GW BOUNDARY FLOW =                  
                WELLS =             67.62                  WELLS =              0.38


                                    OUT                                        OUT
                                    ---                                        ---
   EVAPOTRANSPIRATION =         370203.11     EVAPOTRANSPIRATION =          46152.75
           STREAMFLOW =         133793.31             STREAMFLOW =           6867.00
     GW BOUNDARY FLOW =          15201.53       GW BOUNDARY FLOW =            723.90
                WELLS =          45987.89                  WELLS =           2066.04

   INFLOWS - OUTFLOWS =         139159.89     INFLOWS - OUTFLOWS =         -55809.32
             --------                                   --------

 TOTAL STORAGE CHANGE =         139794.38         STORAGE CHANGE =         -55781.70
       --------------                             --------------
         LAND SURFACE =           4707.66           LAND SURFACE =          -7723.11
            SOIL ZONE =         637745.34              SOIL ZONE =         -24686.63
     UNSATURATED ZONE =        -416137.46       UNSATURATED ZONE =         -18663.51
       SATURATED ZONE =         -86521.17         SATURATED ZONE =          -4708.44

 OVERALL BUDGET ERROR =           -634.48           BUDGET ERROR =            -27.62


  PERCENT DISCREPANCY =             -0.09    PERCENT DISCREPANCY =             -0.05



1
 SUMMARY VOLUMETRIC BUDGET FOR GSFLOW 
 DATE: 10 22 1980              CUMULATIVE TIME STEP:      22
 MODFLOW STRESS PERIOD      2     CURRENT TIME STEP:      22     ITERATIONS:      11

 -----------------------------------------------------------------------------------

   CUMULATIVE VOLUMES               L**3   RATES FOR THIS TIME STEP           L**3/T
   ------------------                      ------------------------

                                     IN                                         IN
                                     --                                         --
        PRECIPITATION =         704278.11          PRECIPITATION =                  
           STREAMFLOW =                               STREAMFLOW =                  
     GW BOUNDARY FLOW =                         GW BOUNDARY FLOW =                  
                WELLS =             68.00                  WELLS =              0.38


                                    OUT                                        OUT
                                    ---                                        ---
   EVAPOTRANSPIRATION =         412728.14     EVAPOTRANSPIRATION =          42525.04
           STREAMFLOW =         140451.39             STREAMFLOW =           6658.08
     GW BOUNDARY FLOW =          15925.37       GW BOUNDARY FLOW =            723.85
                WELLS =          47998.50                  WELLS =           2010.62

   INFLOWS - OUTFLOWS =          87242.69     INFLOWS - OUTFLOWS =         -51917.20
             --------                                   --------

 TOTAL STORAGE CHANGE =          87904.47         STORAGE CHANGE =         -51889.90
       --------------                             --------------
         LAND SURFACE =           1213.72           LAND SURFACE =          -3493.94
            SOIL ZONE =         612644.30              SOIL ZONE =         -25101.04
     UNSATURATED ZONE =        -434667.01       UNSATURATED ZONE =         -18529.55
       SATURATED ZONE =         -91286.54         SATURATED ZONE =          -4765.38

 OVERALL BUDGET ERROR =           -661.78           BUDGET ERROR =            -27.29


  PERCENT DISCREPANCY =             -0.09    PERCENT DISCREPANCY =             -0.05



1
 SUMMARY VOLUMETRIC BUDGET FOR GSFLOW 
 DATE: 10 23 1980              CUMULATIVE TIME STEP:      23
 MODFLOW STRESS PERIOD      2     CURRENT TIME STEP:      23     ITERATIONS:      11

 -----------------------------------------------------------------------------------

   CUMULATIVE VOLUMES               L**3   RATES FOR THIS TIME STEP           L**3/T
   ------------------                      ------------------------

                                     IN                                         IN
                                     --                                         --
        PRECIPITATION =         704278.11          PRECIPITATION =                  
           STREAMFLOW =                               STREAMFLOW =                  
     GW BOUNDARY FLOW =                         GW BOUNDARY FLOW =                  
                WELLS =             68.38                  WELLS =              0.38


                                    OUT                                        OUT
                                    ---                                        ---
   EVAPOTRANSPIRATION =         455253.43     EVAPOTRANSPIRATION =          42525.29
           STREAMFLOW =         146949.46             STREAMFLOW =           6498.07
     GW BOUNDARY FLOW =          16649.17       GW BOUNDARY FLOW =            723.79
                WELLS =          49988.21                  WELLS =           1989.70

   INFLOWS - OUTFLOWS =          35506.21     INFLOWS - OUTFLOWS =         -51736.48
             --------                                   --------

 TOTAL STORAGE CHANGE =          36195.04         STORAGE CHANGE =         -51709.43
       --------------                             --------------
         LAND SURFACE =            189.15           LAND SURFACE =          -1024.58
            SOIL ZONE =         585212.62              SOIL ZONE =         -27431.69
     UNSATURATED ZONE =        -453073.07       UNSATURATED ZONE =         -18406.05
       SATURATED ZONE =         -96133.66         SATURATED ZONE =          -4847.11

 OVERALL BUDGET ERROR =           -688.82           BUDGET ERROR =            -27.05


  PERCENT DISCREPANCY =             -0.10    PERCENT DISCREPANCY =             -0.05



1
 SUMMARY VOLUMETRIC BUDGET FOR GSFLOW 
 DATE: 10 24 1980              CUMULATIVE TIME STEP:      24
 MODFLOW STRESS PERIOD      2     CURRENT TIME STEP:      24     ITERATIONS:      11

 -----------------------------------------------------------------------------------

   CUMULATIVE VOLUMES               L**3   RATES FOR THIS TIME STEP           L**3/T
   ------------------                      ------------------------

                                     IN                                         IN
                                     --                                         --
        PRECIPITATION =         704278.11          PRECIPITATION =                  
           STREAMFLOW =                               STREAMFLOW =                  
     GW BOUNDARY FLOW =                         GW BOUNDARY FLOW =                  
                WELLS =             68.76                  WELLS =              0.38


                                    OUT                                        OUT
                                    ---                                        ---
   EVAPOTRANSPIRATION =         488745.40     EVAPOTRANSPIRATION =          33491.97
           STREAMFLOW =         153306.40             STREAMFLOW =           6356.94
     GW BOUNDARY FLOW =          17372.91       GW BOUNDARY FLOW =            723.74
                WELLS =          51961.82                  WELLS =           1973.62

   INFLOWS - OUTFLOWS =          -7039.67     INFLOWS - OUTFLOWS =         -42545.89
             --------                                   --------

 TOTAL STORAGE CHANGE =          -6324.08         STORAGE CHANGE =         -42519.11
       --------------                             --------------
         LAND SURFACE =             33.22           LAND SURFACE =           -155.92
            SOIL ZONE =         566066.03              SOIL ZONE =         -19146.59
     UNSATURATED ZONE =        -471372.57       UNSATURATED ZONE =         -18299.51
       SATURATED ZONE =        -101050.75         SATURATED ZONE =          -4917.10

 OVERALL BUDGET ERROR =           -715.60           BUDGET ERROR =            -26.77


  PERCENT DISCREPANCY =             -0.10    PERCENT DISCREPANCY =             -0.06



1
 SUMMARY VOLUMETRIC BUDGET FOR GSFLOW 
 DATE: 10 25 1980              CUMULATIVE TIME STEP:      25
 MODFLOW STRESS PERIOD      2     CURRENT TIME STEP:      25     ITERATIONS:      11

 -----------------------------------------------------------------------------------

   CUMULATIVE VOLUMES               L**3   RATES FOR THIS TIME STEP           L**3/T
   ------------------                      ------------------------

                                     IN                                         IN
                                     --                                         --
        PRECIPITATION =         704278.11          PRECIPITATION =                  
           STREAMFLOW =                               STREAMFLOW =                  
     GW BOUNDARY FLOW =                         GW BOUNDARY FLOW =                  
                WELLS =             69.13                  WELLS =              0.38


                                    OUT                                        OUT
                                    ---                                        ---
   EVAPOTRANSPIRATION =         499944.45     EVAPOTRANSPIRATION =          11199.05
           STREAMFLOW =         159567.82             STREAMFLOW =           6261.42
     GW BOUNDARY FLOW =          18096.61       GW BOUNDARY FLOW =            723.70
                WELLS =          53920.69                  WELLS =           1958.87

   INFLOWS - OUTFLOWS =         -27182.33     INFLOWS - OUTFLOWS =         -20142.66
             --------                                   --------

 TOTAL STORAGE CHANGE =         -26440.14         STORAGE CHANGE =         -20116.06
       --------------                             --------------
         LAND SURFACE =             17.15           LAND SURFACE =            -16.07
            SOIL ZONE =         569139.81              SOIL ZONE =           3073.78
     UNSATURATED ZONE =        -489557.38       UNSATURATED ZONE =         -18184.81
       SATURATED ZONE =        -106039.72         SATURATED ZONE =          -4988.97

 OVERALL BUDGET ERROR =           -742.19           BUDGET ERROR =            -26.60


  PERCENT DISCREPANCY =             -0.10    PERCENT DISCREPANCY =             -0.13



1
 SUMMARY VOLUMETRIC BUDGET FOR GSFLOW 
 DATE: 10 26 1980              CUMULATIVE TIME STEP:      26
 MODFLOW STRESS PERIOD      2     CURRENT TIME STEP:      26     ITERATIONS:      10

 -----------------------------------------------------------------------------------

   CUMULATIVE VOLUMES               L**3   RATES FOR THIS TIME STEP           L**3/T
   ------------------                      ------------------------

                                     IN                                         IN
                                     --                                         --
        PRECIPITATION =         893052.32          PRECIPITATION =         188774.21
           STREAMFLOW =                               STREAMFLOW =                  
     GW BOUNDARY FLOW =                         GW BOUNDARY FLOW =                  
                WELLS =             69.51                  WELLS =              0.38


                                    OUT                                        OUT
                                    ---                                        ---
   EVAPOTRANSPIRATION =         511166.93     EVAPOTRANSPIRATION =          11222.47
           STREAMFLOW =         166888.85             STREAMFLOW =           7321.03
     GW BOUNDARY FLOW =          18820.37       GW BOUNDARY FLOW =            723.76
                WELLS =          55865.59                  WELLS =           1944.90

   INFLOWS - OUTFLOWS =         140380.09     INFLOWS - OUTFLOWS =         167562.42
             --------                                   --------

 TOTAL STORAGE CHANGE =         141148.98         STORAGE CHANGE =         167589.12
       --------------                             --------------
         LAND SURFACE =         112871.43           LAND SURFACE =         112854.28
            SOIL ZONE =         646807.02              SOIL ZONE =          77667.21
     UNSATURATED ZONE =        -507646.10       UNSATURATED ZONE =         -18088.72
       SATURATED ZONE =        -110883.37         SATURATED ZONE =          -4843.65

 OVERALL BUDGET ERROR =           -768.89           BUDGET ERROR =            -26.70


  PERCENT DISCREPANCY =             -0.09    PERCENT DISCREPANCY =             -0.01



1
 SUMMARY VOLUMETRIC BUDGET FOR GSFLOW 
 DATE: 10 27 1980              CUMULATIVE TIME STEP:      27
 MODFLOW STRESS PERIOD      2     CURRENT TIME STEP:      27     ITERATIONS:      11

 -----------------------------------------------------------------------------------

   CUMULATIVE VOLUMES               L**3   RATES FOR THIS TIME STEP           L**3/T
   ------------------                      ------------------------

                                     IN                                         IN
                                     --                                         --
        PRECIPITATION =         893052.32          PRECIPITATION =                  
           STREAMFLOW =                               STREAMFLOW =                  
     GW BOUNDARY FLOW =                         GW BOUNDARY FLOW =                  
                WELLS =             69.89                  WELLS =              0.38


                                    OUT                                        OUT
                                    ---                                        ---
   EVAPOTRANSPIRATION =         534944.95     EVAPOTRANSPIRATION =          23778.02
           STREAMFLOW =         173862.72             STREAMFLOW =           6973.88
     GW BOUNDARY FLOW =          19544.15       GW BOUNDARY FLOW =            723.77
                WELLS =          57797.14                  WELLS =           1931.54

   INFLOWS - OUTFLOWS =         106973.25     INFLOWS - OUTFLOWS =         -33406.84
             --------                                   --------

 TOTAL STORAGE CHANGE =         107768.52         STORAGE CHANGE =         -33380.46
       --------------                             --------------
         LAND SURFACE =          58121.66           LAND SURFACE =         -54749.77
            SOIL ZONE =         691109.05              SOIL ZONE =          44302.02
     UNSATURATED ZONE =        -525639.76       UNSATURATED ZONE =         -17993.66
       SATURATED ZONE =        -115822.43         SATURATED ZONE =          -4939.05

 OVERALL BUDGET ERROR =           -795.27           BUDGET ERROR =            -26.38


  PERCENT DISCREPANCY =             -0.09    PERCENT DISCREPANCY =             -0.08



1
 SUMMARY VOLUMETRIC BUDGET FOR GSFLOW 
 DATE: 10 28 1980              CUMULATIVE TIME STEP:      28
 MODFLOW STRESS PERIOD      2     CURRENT TIME STEP:      28     ITERATIONS:      11

 -----------------------------------------------------------------------------------

   CUMULATIVE VOLUMES               L**3   RATES FOR THIS TIME STEP           L**3/T
   ------------------                      ------------------------

                                     IN                                         IN
                                     --                                         --
        PRECIPITATION =         893052.32          PRECIPITATION =                  
           STREAMFLOW =                               STREAMFLOW =                  
     GW BOUNDARY FLOW =                         GW BOUNDARY FLOW =                  
                WELLS =             70.28                  WELLS =              0.38


                                    OUT                                        OUT
                                    ---                                        ---
   EVAPOTRANSPIRATION =         561605.57     EVAPOTRANSPIRATION =          26660.61
           STREAMFLOW =         180782.32             STREAMFLOW =           6919.59
     GW BOUNDARY FLOW =          20267.91       GW BOUNDARY FLOW =            723.77
                WELLS =          59715.88                  WELLS =           1918.75

   INFLOWS - OUTFLOWS =          70750.91     INFLOWS - OUTFLOWS =         -36222.34
             --------                                   --------

 TOTAL STORAGE CHANGE =          71572.30         STORAGE CHANGE =         -36196.22
       --------------                             --------------
         LAND SURFACE =          19525.56           LAND SURFACE =         -38596.10
            SOIL ZONE =         716434.08              SOIL ZONE =          25325.04
     UNSATURATED ZONE =        -543533.42       UNSATURATED ZONE =         -17893.66
       SATURATED ZONE =        -120853.93         SATURATED ZONE =          -5031.50

 OVERALL BUDGET ERROR =           -821.39           BUDGET ERROR =            -26.12


  PERCENT DISCREPANCY =             -0.09    PERCENT DISCREPANCY =             -0.07



1
 SUMMARY VOLUMETRIC BUDGET FOR GSFLOW 
 DATE: 10 29 1980              CUMULATIVE TIME STEP:      29
 MODFLOW STRESS PERIOD      2     CURRENT TIME STEP:      29     ITERATIONS:      11

 -----------------------------------------------------------------------------------

   CUMULATIVE VOLUMES               L**3   RATES FOR THIS TIME STEP           L**3/T
   ------------------                      ------------------------

                                     IN                                         IN
                                     --                                         --
        PRECIPITATION =         893052.32          PRECIPITATION =                  
           STREAMFLOW =                               STREAMFLOW =                  
     GW BOUNDARY FLOW =                         GW BOUNDARY FLOW =                  
                WELLS =            108.95                  WELLS =             38.68


                                    OUT                                        OUT
                                    ---                                        ---
   EVAPOTRANSPIRATION =         600224.88     EVAPOTRANSPIRATION =          38619.31
           STREAMFLOW =         187671.41             STREAMFLOW =           6889.09
     GW BOUNDARY FLOW =          20991.66       GW BOUNDARY FLOW =            723.75
                WELLS =          61182.02                  WELLS =           1466.14

   INFLOWS - OUTFLOWS =          23091.29     INFLOWS - OUTFLOWS =         -47659.62
             --------                                   --------

 TOTAL STORAGE CHANGE =          23938.46         STORAGE CHANGE =         -47633.84
       --------------                             --------------
         LAND SURFACE =            260.92           LAND SURFACE =         -19264.64
            SOIL ZONE =         710559.03              SOIL ZONE =          -5875.06
     UNSATURATED ZONE =        -561316.93       UNSATURATED ZONE =         -17783.51
       SATURATED ZONE =        -125564.55         SATURATED ZONE =          -4710.63

 OVERALL BUDGET ERROR =           -847.17           BUDGET ERROR =            -25.78


  PERCENT DISCREPANCY =             -0.09    PERCENT DISCREPANCY =             -0.05



1
 SUMMARY VOLUMETRIC BUDGET FOR GSFLOW 
 DATE: 10 30 1980              CUMULATIVE TIME STEP:      30
 MODFLOW STRESS PERIOD      2     CURRENT TIME STEP:      30     ITERATIONS:      11

 -----------------------------------------------------------------------------------

   CUMULATIVE VOLUMES               L**3   RATES FOR THIS TIME STEP           L**3/T
   ------------------                      ------------------------

                                     IN                                         IN
                                     --                                         --
        PRECIPITATION =         893052.32          PRECIPITATION =                  
           STREAMFLOW =                               STREAMFLOW =                  
     GW BOUNDARY FLOW =                         GW BOUNDARY FLOW =                  
                WELLS =            109.33                  WELLS =              0.38


                                    OUT                                        OUT
                                    ---                                        ---
   EVAPOTRANSPIRATION =         642600.98     EVAPOTRANSPIRATION =          42376.10
           STREAMFLOW =         194489.79             STREAMFLOW =           6818.38
     GW BOUNDARY FLOW =          21715.39       GW BOUNDARY FLOW =            723.73
                WELLS =          63105.14                  WELLS =           1923.12

   INFLOWS - OUTFLOWS =         -28749.66     INFLOWS - OUTFLOWS =         -51840.95
             --------                                   --------

 TOTAL STORAGE CHANGE =         -27877.01         STORAGE CHANGE =         -51815.48
       --------------                             --------------
         LAND SURFACE =                             LAND SURFACE =           -260.92
            SOIL ZONE =         681965.37              SOIL ZONE =         -28593.66
     UNSATURATED ZONE =        -578989.27       UNSATURATED ZONE =         -17672.34
       SATURATED ZONE =        -130853.11         SATURATED ZONE =          -5288.56

 OVERALL BUDGET ERROR =           -872.65           BUDGET ERROR =            -25.48


  PERCENT DISCREPANCY =             -0.09    PERCENT DISCREPANCY =             -0.05



1
 SUMMARY VOLUMETRIC BUDGET FOR GSFLOW 
 DATE: 10 31 1980              CUMULATIVE TIME STEP:      31
 MODFLOW STRESS PERIOD      2     CURRENT TIME STEP:      31     ITERATIONS:      11

 -----------------------------------------------------------------------------------

   CUMULATIVE VOLUMES               L**3   RATES FOR THIS TIME STEP           L**3/T
   ------------------                      ------------------------

                                     IN                                         IN
                                     --                                         --
        PRECIPITATION =         893052.32          PRECIPITATION =                  
           STREAMFLOW =                               STREAMFLOW =                  
     GW BOUNDARY FLOW =                         GW BOUNDARY FLOW =                  
                WELLS =            123.64                  WELLS =             14.30


                                    OUT                                        OUT
                                    ---                                        ---
   EVAPOTRANSPIRATION =         678798.98     EVAPOTRANSPIRATION =          36197.99
           STREAMFLOW =         201230.69             STREAMFLOW =           6740.90
     GW BOUNDARY FLOW =          22439.10       GW BOUNDARY FLOW =            723.71
                WELLS =          64536.97                  WELLS =           1431.82

   INFLOWS - OUTFLOWS =         -73829.78     INFLOWS - OUTFLOWS =         -45080.12
             --------                                   --------

 TOTAL STORAGE CHANGE =         -72931.85         STORAGE CHANGE =         -45054.84
       --------------                             --------------
         LAND SURFACE =                             LAND SURFACE =                  
            SOIL ZONE =         659377.54              SOIL ZONE =         -22587.82
     UNSATURATED ZONE =        -596551.31       UNSATURATED ZONE =         -17562.04
       SATURATED ZONE =        -135758.09         SATURATED ZONE =          -4904.98

 OVERALL BUDGET ERROR =           -897.93           BUDGET ERROR =            -25.28


  PERCENT DISCREPANCY =             -0.09    PERCENT DISCREPANCY =             -0.06



1
 SUMMARY VOLUMETRIC BUDGET FOR GSFLOW 
 DATE: 11 01 1980              CUMULATIVE TIME STEP:      32
 MODFLOW STRESS PERIOD      2     CURRENT TIME STEP:      32     ITERATIONS:      11

 -----------------------------------------------------------------------------------

   CUMULATIVE VOLUMES               L**3   RATES FOR THIS TIME STEP           L**3/T
   ------------------                      ------------------------

                                     IN                                         IN
                                     --                                         --
        PRECIPITATION =         893052.32          PRECIPITATION =                  
           STREAMFLOW =                               STREAMFLOW =                  
     GW BOUNDARY FLOW =                         GW BOUNDARY FLOW =                  
                WELLS =            124.02                  WELLS =              0.38


                                    OUT                                        OUT
                                    ---                                        ---
   EVAPOTRANSPIRATION =         717101.91     EVAPOTRANSPIRATION =          38302.93
           STREAMFLOW =         207850.08             STREAMFLOW =           6619.39
     GW BOUNDARY FLOW =          23162.79       GW BOUNDARY FLOW =            723.69
                WELLS =          66430.94                  WELLS =           1893.97

   INFLOWS - OUTFLOWS =        -121369.38     INFLOWS - OUTFLOWS =         -47539.60
             --------                                   --------

 TOTAL STORAGE CHANGE =        -120446.27         STORAGE CHANGE =         -47514.42
       --------------                             --------------
         LAND SURFACE =                             LAND SURFACE =                  
            SOIL ZONE =         634756.33              SOIL ZONE =         -24621.22
     UNSATURATED ZONE =        -614004.44       UNSATURATED ZONE =         -17453.13
       SATURATED ZONE =        -141198.16         SATURATED ZONE =          -5440.07

 OVERALL BUDGET ERROR =           -923.10           BUDGET ERROR =            -25.17


  PERCENT DISCREPANCY =             -0.09    PERCENT DISCREPANCY =             -0.05



1
 SUMMARY VOLUMETRIC BUDGET FOR GSFLOW 
 DATE: 11 02 1980              CUMULATIVE TIME STEP:      33
 MODFLOW STRESS PERIOD      2     CURRENT TIME STEP:      33     ITERATIONS:      11

 -----------------------------------------------------------------------------------

   CUMULATIVE VOLUMES               L**3   RATES FOR THIS TIME STEP           L**3/T
   ------------------                      ------------------------

                                     IN                                         IN
                                     --                                         --
        PRECIPITATION =         893052.32          PRECIPITATION =                  
           STREAMFLOW =                               STREAMFLOW =                  
     GW BOUNDARY FLOW =                         GW BOUNDARY FLOW =                  
                WELLS =            124.40                  WELLS =              0.38


                                    OUT                                        OUT
                                    ---                                        ---
   EVAPOTRANSPIRATION =         748347.93     EVAPOTRANSPIRATION =          31246.02
           STREAMFLOW =         214345.88             STREAMFLOW =           6495.80
     GW BOUNDARY FLOW =          23886.45       GW BOUNDARY FLOW =            723.66
                WELLS =          68298.31                  WELLS =           1867.37

   INFLOWS - OUTFLOWS =        -161701.84     INFLOWS - OUTFLOWS =         -40332.47
             --------                                   --------

 TOTAL STORAGE CHANGE =        -160753.80         STORAGE CHANGE =         -40307.53
       --------------                             --------------
         LAND SURFACE =                             LAND SURFACE =                  
            SOIL ZONE =         617280.26              SOIL ZONE =         -17476.07
     UNSATURATED ZONE =        -631364.44       UNSATURATED ZONE =         -17360.00
       SATURATED ZONE =        -146669.62         SATURATED ZONE =          -5471.46

 OVERALL BUDGET ERROR =           -948.04           BUDGET ERROR =            -24.94


  PERCENT DISCREPANCY =             -0.09    PERCENT DISCREPANCY =             -0.06



1
 SUMMARY VOLUMETRIC BUDGET FOR GSFLOW 
 DATE: 11 03 1980              CUMULATIVE TIME STEP:      34
 MODFLOW STRESS PERIOD      2     CURRENT TIME STEP:      34     ITERATIONS:      11

 -----------------------------------------------------------------------------------

   CUMULATIVE VOLUMES               L**3   RATES FOR THIS TIME STEP           L**3/T
   ------------------                      ------------------------

                                     IN                                         IN
                                     --                                         --
        PRECIPITATION =         893052.32          PRECIPITATION =                  
           STREAMFLOW =                               STREAMFLOW =                  
     GW BOUNDARY FLOW =                         GW BOUNDARY FLOW =                  
                WELLS =            124.78                  WELLS =              0.38


                                    OUT                                        OUT
                                    ---                                        ---
   EVAPOTRANSPIRATION =         787535.84     EVAPOTRANSPIRATION =          39187.91
           STREAMFLOW =         220727.53             STREAMFLOW =           6381.66
     GW BOUNDARY FLOW =          24610.08       GW BOUNDARY FLOW =            723.64
                WELLS =          70152.04                  WELLS =           1853.73

   INFLOWS - OUTFLOWS =        -209848.40     INFLOWS - OUTFLOWS =         -48146.55
             --------                                   --------

 TOTAL STORAGE CHANGE =        -208875.72         STORAGE CHANGE =         -48121.91
       --------------                             --------------
         LAND SURFACE =                             LAND SURFACE =                  
            SOIL ZONE =         591943.34              SOIL ZONE =         -25336.92
     UNSATURATED ZONE =        -648635.48       UNSATURATED ZONE =         -17271.04
       SATURATED ZONE =        -152183.57         SATURATED ZONE =          -5513.95

 OVERALL BUDGET ERROR =           -972.68           BUDGET ERROR =            -24.64


  PERCENT DISCREPANCY =             -0.09    PERCENT DISCREPANCY =             -0.05



1
 SUMMARY VOLUMETRIC BUDGET FOR GSFLOW 
 DATE: 11 04 1980              CUMULATIVE TIME STEP:      35
 MODFLOW STRESS PERIOD      2     CURRENT TIME STEP:      35     ITERATIONS:      11

 -----------------------------------------------------------------------------------

   CUMULATIVE VOLUMES               L**3   RATES FOR THIS TIME STEP           L**3/T
   ------------------                      ------------------------

                                     IN                                         IN
                                     --                                         --
        PRECIPITATION =         893052.32          PRECIPITATION =                  
           STREAMFLOW =                               STREAMFLOW =                  
     GW BOUNDARY FLOW =                         GW BOUNDARY FLOW =                  
                WELLS =            125.16                  WELLS =              0.38


                                    OUT                                        OUT
                                    ---                                        ---
   EVAPOTRANSPIRATION =         827872.06     EVAPOTRANSPIRATION =          40336.22
           STREAMFLOW =         226966.83             STREAMFLOW =           6239.30
     GW BOUNDARY FLOW =          25333.69       GW BOUNDARY FLOW =            723.61
                WELLS =          71994.21                  WELLS =           1842.17

   INFLOWS - OUTFLOWS =        -258989.31     INFLOWS - OUTFLOWS =         -49140.92
             --------                                   --------

 TOTAL STORAGE CHANGE =        -257992.15         STORAGE CHANGE =         -49116.43
       --------------                             --------------
         LAND SURFACE =                             LAND SURFACE =                  
            SOIL ZONE =         565572.27              SOIL ZONE =         -26371.07
     UNSATURATED ZONE =        -665814.19       UNSATURATED ZONE =         -17178.71
       SATURATED ZONE =        -157750.22         SATURATED ZONE =          -5566.65

 OVERALL BUDGET ERROR =           -997.17           BUDGET ERROR =            -24.49


  PERCENT DISCREPANCY =             -0.09    PERCENT DISCREPANCY =             -0.05



1
 SUMMARY VOLUMETRIC BUDGET FOR GSFLOW 
 DATE: 11 05 1980              CUMULATIVE TIME STEP:      36
 MODFLOW STRESS PERIOD      2     CURRENT TIME STEP:      36     ITERATIONS:      10

 -----------------------------------------------------------------------------------

   CUMULATIVE VOLUMES               L**3   RATES FOR THIS TIME STEP           L**3/T
   ------------------                      ------------------------

                                     IN                                         IN
                                     --                                         --
        PRECIPITATION =         893052.32          PRECIPITATION =                  
           STREAMFLOW =                               STREAMFLOW =                  
     GW BOUNDARY FLOW =                         GW BOUNDARY FLOW =                  
[...]
     UNSATURATED ZONE =         682694.27       UNSATURATED ZONE =          -3493.98
       SATURATED ZONE =       -1.0419D+07         SATURATED ZONE =          -7796.83

 OVERALL BUDGET ERROR =          -3934.09           BUDGET ERROR =             -0.91


  PERCENT DISCREPANCY =             -0.00    PERCENT DISCREPANCY =             -0.00



1
 SUMMARY VOLUMETRIC BUDGET FOR GSFLOW 
 DATE: 08 25 1983              CUMULATIVE TIME STEP:    1059
 MODFLOW STRESS PERIOD      2     CURRENT TIME STEP:    1059     ITERATIONS:      10

 -----------------------------------------------------------------------------------

   CUMULATIVE VOLUMES               L**3   RATES FOR THIS TIME STEP           L**3/T
   ------------------                      ------------------------

                                     IN                                         IN
                                     --                                         --
        PRECIPITATION =        1.1097D+08          PRECIPITATION =                  
           STREAMFLOW =                               STREAMFLOW =                  
     GW BOUNDARY FLOW =                         GW BOUNDARY FLOW =                  
                WELLS =          22508.36                  WELLS =             31.24


                                    OUT                                        OUT
                                    ---                                        ---
   EVAPOTRANSPIRATION =        5.5994D+07     EVAPOTRANSPIRATION =          69682.72
           STREAMFLOW =        6.0535D+07             STREAMFLOW =          13308.43
     GW BOUNDARY FLOW =         767248.02       GW BOUNDARY FLOW =            718.04
                WELLS =         967092.55                  WELLS =            511.56

   INFLOWS - OUTFLOWS =       -7268723.21     INFLOWS - OUTFLOWS =         -84189.51
             --------                                   --------

 TOTAL STORAGE CHANGE =       -7264788.28         STORAGE CHANGE =         -84188.67
       --------------                             --------------
         LAND SURFACE =        1170500.11           LAND SURFACE =         -22583.64
            SOIL ZONE =        1312502.60              SOIL ZONE =         -50152.19
     UNSATURATED ZONE =         678895.88       UNSATURATED ZONE =          -3798.40
       SATURATED ZONE =       -1.0427D+07         SATURATED ZONE =          -7654.45

 OVERALL BUDGET ERROR =          -3934.93           BUDGET ERROR =             -0.84


  PERCENT DISCREPANCY =             -0.00    PERCENT DISCREPANCY =             -0.00



1
 SUMMARY VOLUMETRIC BUDGET FOR GSFLOW 
 DATE: 08 26 1983              CUMULATIVE TIME STEP:    1060
 MODFLOW STRESS PERIOD      2     CURRENT TIME STEP:    1060     ITERATIONS:      10

 -----------------------------------------------------------------------------------

   CUMULATIVE VOLUMES               L**3   RATES FOR THIS TIME STEP           L**3/T
   ------------------                      ------------------------

                                     IN                                         IN
                                     --                                         --
        PRECIPITATION =        1.1097D+08          PRECIPITATION =                  
           STREAMFLOW =                               STREAMFLOW =                  
     GW BOUNDARY FLOW =                         GW BOUNDARY FLOW =                  
                WELLS =          22538.32                  WELLS =             29.95


                                    OUT                                        OUT
                                    ---                                        ---
   EVAPOTRANSPIRATION =        5.6078D+07     EVAPOTRANSPIRATION =          83654.74
           STREAMFLOW =        6.0548D+07             STREAMFLOW =          12934.92
     GW BOUNDARY FLOW =         767965.87       GW BOUNDARY FLOW =            717.85
                WELLS =         967602.33                  WELLS =            509.78

   INFLOWS - OUTFLOWS =       -7366510.53     INFLOWS - OUTFLOWS =         -97787.32
             --------                                   --------

 TOTAL STORAGE CHANGE =       -7362574.65         STORAGE CHANGE =         -97786.37
       --------------                             --------------
         LAND SURFACE =        1141168.19           LAND SURFACE =         -29331.91
            SOIL ZONE =        1255752.21              SOIL ZONE =         -56750.39
     UNSATURATED ZONE =         674887.68       UNSATURATED ZONE =          -4008.19
       SATURATED ZONE =       -1.0434D+07         SATURATED ZONE =          -7695.88

 OVERALL BUDGET ERROR =          -3935.89           BUDGET ERROR =             -0.96


  PERCENT DISCREPANCY =             -0.00    PERCENT DISCREPANCY =             -0.00



1
 SUMMARY VOLUMETRIC BUDGET FOR GSFLOW 
 DATE: 08 27 1983              CUMULATIVE TIME STEP:    1061
 MODFLOW STRESS PERIOD      2     CURRENT TIME STEP:    1061     ITERATIONS:      10

 -----------------------------------------------------------------------------------

   CUMULATIVE VOLUMES               L**3   RATES FOR THIS TIME STEP           L**3/T
   ------------------                      ------------------------

                                     IN                                         IN
                                     --                                         --
        PRECIPITATION =        1.1097D+08          PRECIPITATION =                  
           STREAMFLOW =                               STREAMFLOW =                  
     GW BOUNDARY FLOW =                         GW BOUNDARY FLOW =                  
                WELLS =          22569.11                  WELLS =             30.79


                                    OUT                                        OUT
                                    ---                                        ---
   EVAPOTRANSPIRATION =        5.6163D+07     EVAPOTRANSPIRATION =          85517.93
           STREAMFLOW =        6.0560D+07             STREAMFLOW =          11590.98
     GW BOUNDARY FLOW =         768683.50       GW BOUNDARY FLOW =            717.63
                WELLS =         968112.46                  WELLS =            510.12

   INFLOWS - OUTFLOWS =       -7464816.41     INFLOWS - OUTFLOWS =         -98305.88
             --------                                   --------

 TOTAL STORAGE CHANGE =       -7460879.47         STORAGE CHANGE =         -98304.82
       --------------                             --------------
         LAND SURFACE =        1110849.44           LAND SURFACE =         -30318.75
            SOIL ZONE =        1199996.80              SOIL ZONE =         -55755.41
     UNSATURATED ZONE =         670546.60       UNSATURATED ZONE =          -4341.08
       SATURATED ZONE =       -1.0442D+07         SATURATED ZONE =          -7889.58

 OVERALL BUDGET ERROR =          -3936.94           BUDGET ERROR =             -1.06


  PERCENT DISCREPANCY =             -0.00    PERCENT DISCREPANCY =             -0.00



1
 SUMMARY VOLUMETRIC BUDGET FOR GSFLOW 
 DATE: 08 28 1983              CUMULATIVE TIME STEP:    1062
 MODFLOW STRESS PERIOD      2     CURRENT TIME STEP:    1062     ITERATIONS:      10

 -----------------------------------------------------------------------------------

   CUMULATIVE VOLUMES               L**3   RATES FOR THIS TIME STEP           L**3/T
   ------------------                      ------------------------

                                     IN                                         IN
                                     --                                         --
        PRECIPITATION =        1.1097D+08          PRECIPITATION =                  
           STREAMFLOW =                               STREAMFLOW =                  
     GW BOUNDARY FLOW =                         GW BOUNDARY FLOW =                  
                WELLS =          22599.83                  WELLS =             30.72


                                    OUT                                        OUT
                                    ---                                        ---
   EVAPOTRANSPIRATION =        5.6241D+07     EVAPOTRANSPIRATION =          77574.49
           STREAMFLOW =        6.0570D+07             STREAMFLOW =          10391.59
     GW BOUNDARY FLOW =         769400.91       GW BOUNDARY FLOW =            717.41
                WELLS =         968622.02                  WELLS =            509.56

   INFLOWS - OUTFLOWS =       -7553978.75     INFLOWS - OUTFLOWS =         -89162.34
             --------                                   --------

 TOTAL STORAGE CHANGE =       -7550040.63         STORAGE CHANGE =         -89161.16
       --------------                             --------------
         LAND SURFACE =        1083427.75           LAND SURFACE =         -27421.69
            SOIL ZONE =        1150950.62              SOIL ZONE =         -49046.18
     UNSATURATED ZONE =         665861.80       UNSATURATED ZONE =          -4684.80
       SATURATED ZONE =       -1.0450D+07         SATURATED ZONE =          -8008.49

 OVERALL BUDGET ERROR =          -3938.12           BUDGET ERROR =             -1.18


  PERCENT DISCREPANCY =             -0.00    PERCENT DISCREPANCY =             -0.00



1
 SUMMARY VOLUMETRIC BUDGET FOR GSFLOW 
 DATE: 08 29 1983              CUMULATIVE TIME STEP:    1063
 MODFLOW STRESS PERIOD      2     CURRENT TIME STEP:    1063     ITERATIONS:       9

 -----------------------------------------------------------------------------------

   CUMULATIVE VOLUMES               L**3   RATES FOR THIS TIME STEP           L**3/T
   ------------------                      ------------------------

                                     IN                                         IN
                                     --                                         --
        PRECIPITATION =        1.1097D+08          PRECIPITATION =                  
           STREAMFLOW =                               STREAMFLOW =                  
     GW BOUNDARY FLOW =                         GW BOUNDARY FLOW =                  
                WELLS =          22630.36                  WELLS =             30.53


                                    OUT                                        OUT
                                    ---                                        ---
   EVAPOTRANSPIRATION =        5.6322D+07     EVAPOTRANSPIRATION =          80728.55
           STREAMFLOW =        6.0580D+07             STREAMFLOW =          10000.56
     GW BOUNDARY FLOW =         770118.16       GW BOUNDARY FLOW =            717.24
                WELLS =         969130.91                  WELLS =            508.89

   INFLOWS - OUTFLOWS =       -7645903.47     INFLOWS - OUTFLOWS =         -91924.72
             --------                                   --------

 TOTAL STORAGE CHANGE =       -7641963.96         STORAGE CHANGE =         -91923.33
       --------------                             --------------
         LAND SURFACE =        1053805.25           LAND SURFACE =         -29622.51
            SOIL ZONE =        1101704.43              SOIL ZONE =         -49246.19
     UNSATURATED ZONE =         660877.37       UNSATURATED ZONE =          -4984.43
       SATURATED ZONE =       -1.0458D+07         SATURATED ZONE =          -8070.20

 OVERALL BUDGET ERROR =          -3939.51           BUDGET ERROR =             -1.39


  PERCENT DISCREPANCY =             -0.00    PERCENT DISCREPANCY =             -0.00



1
 SUMMARY VOLUMETRIC BUDGET FOR GSFLOW 
 DATE: 08 30 1983              CUMULATIVE TIME STEP:    1064
 MODFLOW STRESS PERIOD      2     CURRENT TIME STEP:    1064     ITERATIONS:       9

 -----------------------------------------------------------------------------------

   CUMULATIVE VOLUMES               L**3   RATES FOR THIS TIME STEP           L**3/T
   ------------------                      ------------------------

                                     IN                                         IN
                                     --                                         --
        PRECIPITATION =        1.1097D+08          PRECIPITATION =                  
           STREAMFLOW =                               STREAMFLOW =                  
     GW BOUNDARY FLOW =                         GW BOUNDARY FLOW =                  
                WELLS =          22660.67                  WELLS =             30.31


                                    OUT                                        OUT
                                    ---                                        ---
   EVAPOTRANSPIRATION =        5.6401D+07     EVAPOTRANSPIRATION =          78990.26
           STREAMFLOW =        6.0590D+07             STREAMFLOW =           9525.37
     GW BOUNDARY FLOW =         770835.25       GW BOUNDARY FLOW =            717.09
                WELLS =         969639.11                  WELLS =            508.21

   INFLOWS - OUTFLOWS =       -7735614.08     INFLOWS - OUTFLOWS =         -89710.62
             --------                                   --------

 TOTAL STORAGE CHANGE =       -7731673.10         STORAGE CHANGE =         -89709.14
       --------------                             --------------
         LAND SURFACE =        1023874.83           LAND SURFACE =         -29930.41
            SOIL ZONE =        1055084.91              SOIL ZONE =         -46619.52
     UNSATURATED ZONE =         655853.67       UNSATURATED ZONE =          -5023.70
       SATURATED ZONE =       -1.0466D+07         SATURATED ZONE =          -8135.52

 OVERALL BUDGET ERROR =          -3940.98           BUDGET ERROR =             -1.47


  PERCENT DISCREPANCY =             -0.00    PERCENT DISCREPANCY =             -0.00



1
 SUMMARY VOLUMETRIC BUDGET FOR GSFLOW 
 DATE: 08 31 1983              CUMULATIVE TIME STEP:    1065
 MODFLOW STRESS PERIOD      2     CURRENT TIME STEP:    1065     ITERATIONS:      10

 -----------------------------------------------------------------------------------

   CUMULATIVE VOLUMES               L**3   RATES FOR THIS TIME STEP           L**3/T
   ------------------                      ------------------------

                                     IN                                         IN
                                     --                                         --
        PRECIPITATION =        1.1097D+08          PRECIPITATION =                  
           STREAMFLOW =                               STREAMFLOW =                  
     GW BOUNDARY FLOW =                         GW BOUNDARY FLOW =                  
                WELLS =          22690.76                  WELLS =             30.09


                                    OUT                                        OUT
                                    ---                                        ---
   EVAPOTRANSPIRATION =        5.6477D+07     EVAPOTRANSPIRATION =          76456.42
           STREAMFLOW =        6.0599D+07             STREAMFLOW =           9367.52
     GW BOUNDARY FLOW =         771552.23       GW BOUNDARY FLOW =            716.98
                WELLS =         970146.65                  WELLS =            507.54

   INFLOWS - OUTFLOWS =       -7822632.45     INFLOWS - OUTFLOWS =         -87018.37
             --------                                   --------

 TOTAL STORAGE CHANGE =       -7818689.90         STORAGE CHANGE =         -87016.80
       --------------                             --------------
         LAND SURFACE =         993278.98           LAND SURFACE =         -30595.86
            SOIL ZONE =        1011898.78              SOIL ZONE =         -43186.13
     UNSATURATED ZONE =         650736.86       UNSATURATED ZONE =          -5116.82
       SATURATED ZONE =       -1.0475D+07         SATURATED ZONE =          -8118.00

 OVERALL BUDGET ERROR =          -3942.55           BUDGET ERROR =             -1.57


  PERCENT DISCREPANCY =             -0.00    PERCENT DISCREPANCY =             -0.00



1
 SUMMARY VOLUMETRIC BUDGET FOR GSFLOW 
 DATE: 09 01 1983              CUMULATIVE TIME STEP:    1066
 MODFLOW STRESS PERIOD      2     CURRENT TIME STEP:    1066     ITERATIONS:      10

 -----------------------------------------------------------------------------------

   CUMULATIVE VOLUMES               L**3   RATES FOR THIS TIME STEP           L**3/T
   ------------------                      ------------------------

                                     IN                                         IN
                                     --                                         --
        PRECIPITATION =        1.1115D+08          PRECIPITATION =         179951.08
           STREAMFLOW =                               STREAMFLOW =                  
     GW BOUNDARY FLOW =                         GW BOUNDARY FLOW =                  
                WELLS =          22720.64                  WELLS =             29.87


                                    OUT                                        OUT
                                    ---                                        ---
   EVAPOTRANSPIRATION =        5.6519D+07     EVAPOTRANSPIRATION =          41502.66
           STREAMFLOW =        6.0612D+07             STREAMFLOW =          12935.64
     GW BOUNDARY FLOW =         772269.37       GW BOUNDARY FLOW =            717.14
                WELLS =         970653.54                  WELLS =            506.89

   INFLOWS - OUTFLOWS =       -7698313.82     INFLOWS - OUTFLOWS =         124318.63
             --------                                   --------

 TOTAL STORAGE CHANGE =       -7694369.63         STORAGE CHANGE =         124320.28
       --------------                             --------------
         LAND SURFACE =        1006009.39           LAND SURFACE =          12730.41
            SOIL ZONE =        1135723.94              SOIL ZONE =         123825.16
     UNSATURATED ZONE =         645957.04       UNSATURATED ZONE =          -4779.82
       SATURATED ZONE =       -1.0482D+07         SATURATED ZONE =          -7455.47

 OVERALL BUDGET ERROR =          -3944.19           BUDGET ERROR =             -1.65


  PERCENT DISCREPANCY =             -0.00    PERCENT DISCREPANCY =             -0.00



 Number of time steps:   1066;  Number of non-convergence:   0
 MF iterations:         10993;  SZ iterations:           10993
 Average MF iterations: 10.31;  Average SZ iterations:   10.31
 Maximum MF iterations:    28;  Maximum SZ iterations:      28

MF iteration distribution:      0    0    0    0    0    0    2  149  117  340
                              192  259    2    2    0    2    0    0    0    0
                                0    0    0    0    0    0    0    1    0    0
                                0    0    0    0    0    0    0    0    0    0
                                0    0    0    0    0    0    0    0    0    0
                                0    0    0    0    0    0    0    0    0    0
                                0    0    0    0    0    0    0    0    0    0
                                0    0    0    0    0    0    0    0    0    0

SZ computation distribution:    0    0    0    0    0    0    2  149  117  340
                              192  259    2    2    0    2    0    0    0    0
                                0    0    0    0    0    0    0    1    0    0
                                0    0    0    0    0    0    0    0    0    0
                                0    0    0    0    0    0    0    0    0    0
                                0    0    0    0    0    0    0    0    0    0
                                0    0    0    0    0    0    0    0    0    0
                                0    0    0    0    0    0    0    0    0    0

