1
 SUMMARY VOLUMETRIC BUDGET FOR GSFLOW 
 DATE: 10 20 1983              CUMULATIVE TIME STEP:    1114
 MODFLOW STRESS PERIOD      2     CURRENT TIME STEP:       7     ITERATIONS:       9

 -----------------------------------------------------------------------------------

   CUMULATIVE VOLUMES               L**3   RATES FOR THIS TIME STEP           L**3/T
   ------------------                      ------------------------

                                     IN                                         IN
                                     --                                         --
        PRECIPITATION =                            PRECIPITATION =                  
           STREAMFLOW =                               STREAMFLOW =                  
     GW BOUNDARY FLOW =                         GW BOUNDARY FLOW =                  
                WELLS =            171.75                  WELLS =             23.52


                                    OUT                                        OUT
                                    ---                                        ---
   EVAPOTRANSPIRATION =         177294.59     EVAPOTRANSPIRATION =          35283.70
           STREAMFLOW =          28929.03             STREAMFLOW =           4020.53
     GW BOUNDARY FLOW =           5021.00       GW BOUNDARY FLOW =            717.27
                WELLS =           7721.25                  WELLS =            881.84

   INFLOWS - OUTFLOWS =        -218794.13     INFLOWS - OUTFLOWS =         -40879.81
             --------                                   --------

 TOTAL STORAGE CHANGE =        -218775.69         STORAGE CHANGE =         -40877.07
       --------------                             --------------
         LAND SURFACE =         -10287.80           LAND SURFACE =          -4160.76
            SOIL ZONE =        -100293.84              SOIL ZONE =         -21411.22
     UNSATURATED ZONE =         -41683.45       UNSATURATED ZONE =          -6049.98
       SATURATED ZONE =         -66510.60         SATURATED ZONE =          -9255.11

 OVERALL BUDGET ERROR =            -18.44           BUDGET ERROR =             -2.75


  PERCENT DISCREPANCY =             -0.01    PERCENT DISCREPANCY =             -0.01



