1
 SUMMARY VOLUMETRIC BUDGET FOR GSFLOW 
 DATE: 10 07 1980              CUMULATIVE TIME STEP:       7
 MODFLOW STRESS PERIOD      2     CURRENT TIME STEP:       7     ITERATIONS:      10

 -----------------------------------------------------------------------------------

   CUMULATIVE VOLUMES               L**3   RATES FOR THIS TIME STEP           L**3/T
   ------------------                      ------------------------

                                     IN                                         IN
                                     --                                         --
        PRECIPITATION =                            PRECIPITATION =                  
           STREAMFLOW =                               STREAMFLOW =                  
     GW BOUNDARY FLOW =                         GW BOUNDARY FLOW =                  
                WELLS =              2.61                  WELLS =              0.38


                                    OUT                                        OUT
                                    ---                                        ---
   EVAPOTRANSPIRATION =          57542.59     EVAPOTRANSPIRATION =           9509.75
           STREAMFLOW =          40890.25             STREAMFLOW =           5688.54
     GW BOUNDARY FLOW =           5067.54       GW BOUNDARY FLOW =            723.82
                WELLS =          16940.66                  WELLS =           2303.51

   INFLOWS - OUTFLOWS =        -120438.43     INFLOWS - OUTFLOWS =         -18225.24
             --------                                   --------

 TOTAL STORAGE CHANGE =        -120215.02         STORAGE CHANGE =         -18194.08
       --------------                             --------------
         LAND SURFACE =                             LAND SURFACE =                  
            SOIL ZONE =          52456.26              SOIL ZONE =           6094.25
     UNSATURATED ZONE =        -144187.06       UNSATURATED ZONE =         -20266.32
       SATURATED ZONE =         -28484.22         SATURATED ZONE =          -4022.00

 OVERALL BUDGET ERROR =           -223.40           BUDGET ERROR =            -31.16


  PERCENT DISCREPANCY =             -0.19    PERCENT DISCREPANCY =             -0.17



1
 SUMMARY VOLUMETRIC BUDGET FOR GSFLOW 
 DATE: 10 14 1980              CUMULATIVE TIME STEP:      14
 MODFLOW STRESS PERIOD      2     CURRENT TIME STEP:      14     ITERATIONS:      11

 -----------------------------------------------------------------------------------

   CUMULATIVE VOLUMES               L**3   RATES FOR THIS TIME STEP           L**3/T
   ------------------                      ------------------------

                                     IN                                         IN
                                     --                                         --
        PRECIPITATION =         403289.47          PRECIPITATION =         174040.42
           STREAMFLOW =                               STREAMFLOW =                  
     GW BOUNDARY FLOW =                         GW BOUNDARY FLOW =                  
                WELLS =              5.25                  WELLS =              0.38


                                    OUT                                        OUT
                                    ---                                        ---
   EVAPOTRANSPIRATION =         132398.83     EVAPOTRANSPIRATION =           5028.30
           STREAMFLOW =          84314.03             STREAMFLOW =           6970.30
     GW BOUNDARY FLOW =          10134.18       GW BOUNDARY FLOW =            723.90
                WELLS =          32362.84                  WELLS =           2136.36

   INFLOWS - OUTFLOWS =         144084.84     INFLOWS - OUTFLOWS =         159181.93
             --------                                   --------

 TOTAL STORAGE CHANGE =         144519.60         STORAGE CHANGE =         159211.48
       --------------                             --------------
         LAND SURFACE =         150822.63           LAND SURFACE =         106712.03
            SOIL ZONE =         333671.51              SOIL ZONE =          76089.91
     UNSATURATED ZONE =        -282947.09       UNSATURATED ZONE =         -19478.21
       SATURATED ZONE =         -57027.46         SATURATED ZONE =          -4112.24

 OVERALL BUDGET ERROR =           -434.76           BUDGET ERROR =            -29.55


  PERCENT DISCREPANCY =             -0.11    PERCENT DISCREPANCY =             -0.02



1
 SUMMARY VOLUMETRIC BUDGET FOR GSFLOW 
 DATE: 10 21 1980              CUMULATIVE TIME STEP:      21
 MODFLOW STRESS PERIOD      2     CURRENT TIME STEP:      21     ITERATIONS:      11

 -----------------------------------------------------------------------------------

   CUMULATIVE VOLUMES               L**3   RATES FOR THIS TIME STEP           L**3/T
   ------------------                      ------------------------

                                     IN                                         IN
                                     --                                         --
        PRECIPITATION =         704278.11          PRECIPITATION =                  
           STREAMFLOW =                               STREAMFLOW =                  
     GW BOUNDARY FLOW =                         GW BOUNDARY FLOW =                  
                WELLS =             85.13                  WELLS =             17.89


                                    OUT                                        OUT
                                    ---                                        ---
   EVAPOTRANSPIRATION =         341767.56     EVAPOTRANSPIRATION =          40632.64
           STREAMFLOW =         133501.13             STREAMFLOW =           6850.60
     GW BOUNDARY FLOW =          15201.48       GW BOUNDARY FLOW =            723.90
                WELLS =          45096.26                  WELLS =           1174.41

   INFLOWS - OUTFLOWS =         168796.80     INFLOWS - OUTFLOWS =         -49363.66
             --------                                   --------

 TOTAL STORAGE CHANGE =         169431.24         STORAGE CHANGE =         -49336.06
       --------------                             --------------
         LAND SURFACE =           4707.67           LAND SURFACE =          -7723.11
            SOIL ZONE =         666570.62              SOIL ZONE =         -19067.13
     UNSATURATED ZONE =        -416145.24       UNSATURATED ZONE =         -18671.10
       SATURATED ZONE =         -85701.81         SATURATED ZONE =          -3874.72

 OVERALL BUDGET ERROR =           -634.44           BUDGET ERROR =            -27.60


  PERCENT DISCREPANCY =             -0.09    PERCENT DISCREPANCY =             -0.06



1
 SUMMARY VOLUMETRIC BUDGET FOR GSFLOW 
 DATE: 10 28 1980              CUMULATIVE TIME STEP:      28
 MODFLOW STRESS PERIOD      2     CURRENT TIME STEP:      28     ITERATIONS:      11

 -----------------------------------------------------------------------------------

   CUMULATIVE VOLUMES               L**3   RATES FOR THIS TIME STEP           L**3/T
   ------------------                      ------------------------

                                     IN                                         IN
                                     --                                         --
        PRECIPITATION =         893052.32          PRECIPITATION =                  
           STREAMFLOW =                               STREAMFLOW =                  
     GW BOUNDARY FLOW =                         GW BOUNDARY FLOW =                  
                WELLS =             87.78                  WELLS =              0.38


                                    OUT                                        OUT
                                    ---                                        ---
   EVAPOTRANSPIRATION =         525218.65     EVAPOTRANSPIRATION =          26812.85
           STREAMFLOW =         180324.96             STREAMFLOW =           6892.36
     GW BOUNDARY FLOW =          20267.83       GW BOUNDARY FLOW =            723.76
                WELLS =          58701.15                  WELLS =           1929.81

   INFLOWS - OUTFLOWS =         108627.51     INFLOWS - OUTFLOWS =         -36358.40
             --------                                   --------

 TOTAL STORAGE CHANGE =         109448.74         STORAGE CHANGE =         -36332.30
       --------------                             --------------
         LAND SURFACE =          19525.56           LAND SURFACE =         -38596.10
            SOIL ZONE =         753527.62              SOIL ZONE =          25211.65
     UNSATURATED ZONE =        -543555.84       UNSATURATED ZONE =         -17893.80
       SATURATED ZONE =        -120048.61         SATURATED ZONE =          -5054.04

 OVERALL BUDGET ERROR =           -821.23           BUDGET ERROR =            -26.11


  PERCENT DISCREPANCY =             -0.09    PERCENT DISCREPANCY =             -0.07



1
 SUMMARY VOLUMETRIC BUDGET FOR GSFLOW 
 DATE: 11 04 1980              CUMULATIVE TIME STEP:      35
 MODFLOW STRESS PERIOD      2     CURRENT TIME STEP:      35     ITERATIONS:      11

 -----------------------------------------------------------------------------------

   CUMULATIVE VOLUMES               L**3   RATES FOR THIS TIME STEP           L**3/T
   ------------------                      ------------------------

                                     IN                                         IN
                                     --                                         --
        PRECIPITATION =         893052.32          PRECIPITATION =                  
           STREAMFLOW =                               STREAMFLOW =                  
     GW BOUNDARY FLOW =                         GW BOUNDARY FLOW =                  
                WELLS =            152.40                  WELLS =              0.38


                                    OUT                                        OUT
                                    ---                                        ---
   EVAPOTRANSPIRATION =         760522.91     EVAPOTRANSPIRATION =          32074.19
           STREAMFLOW =         226556.63             STREAMFLOW =           6250.95
     GW BOUNDARY FLOW =          25333.60       GW BOUNDARY FLOW =            723.61
                WELLS =          70198.91                  WELLS =           1860.14

   INFLOWS - OUTFLOWS =        -189407.33     INFLOWS - OUTFLOWS =         -40908.51
             --------                                   --------

 TOTAL STORAGE CHANGE =        -188410.56         STORAGE CHANGE =         -40884.06
       --------------                             --------------
         LAND SURFACE =                             LAND SURFACE =                  
            SOIL ZONE =         633847.49              SOIL ZONE =         -18097.11
     UNSATURATED ZONE =        -665859.08       UNSATURATED ZONE =         -17178.06
       SATURATED ZONE =        -156398.98         SATURATED ZONE =          -5608.89

 OVERALL BUDGET ERROR =           -996.77           BUDGET ERROR =            -24.45


  PERCENT DISCREPANCY =             -0.09    PERCENT DISCREPANCY =             -0.06



1
 SUMMARY VOLUMETRIC BUDGET FOR GSFLOW 
 DATE: 11 11 1980              CUMULATIVE TIME STEP:      42
 MODFLOW STRESS PERIOD      2     CURRENT TIME STEP:      42     ITERATIONS:      11

 -----------------------------------------------------------------------------------

   CUMULATIVE VOLUMES               L**3   RATES FOR THIS TIME STEP           L**3/T
   ------------------                      ------------------------

                                     IN                                         IN
                                     --                                         --
        PRECIPITATION =        1445195.46          PRECIPITATION =         164672.55
           STREAMFLOW =                               STREAMFLOW =                  
     GW BOUNDARY FLOW =                         GW BOUNDARY FLOW =                  
                WELLS =            155.08                  WELLS =              0.38


                                    OUT                                        OUT
                                    ---                                        ---
   EVAPOTRANSPIRATION =         966928.75     EVAPOTRANSPIRATION =          14118.84
           STREAMFLOW =         279956.72             STREAMFLOW =           8868.96
     GW BOUNDARY FLOW =          30399.85       GW BOUNDARY FLOW =            723.91
                WELLS =          82733.93                  WELLS =           1789.89

   INFLOWS - OUTFLOWS =          85331.28     INFLOWS - OUTFLOWS =         139171.34
             --------                                   --------

 TOTAL STORAGE CHANGE =          86494.39         STORAGE CHANGE =         139194.62
       --------------                             --------------
         LAND SURFACE =          69010.13           LAND SURFACE =          66606.95
            SOIL ZONE =         996114.17              SOIL ZONE =          94624.11
     UNSATURATED ZONE =        -783328.43       UNSATURATED ZONE =         -16468.90
       SATURATED ZONE =        -195301.47         SATURATED ZONE =          -5567.55

 OVERALL BUDGET ERROR =          -1163.11           BUDGET ERROR =            -23.28


  PERCENT DISCREPANCY =             -0.08    PERCENT DISCREPANCY =             -0.01



1
 SUMMARY VOLUMETRIC BUDGET FOR GSFLOW 
 DATE: 11 18 1980              CUMULATIVE TIME STEP:      49
 MODFLOW STRESS PERIOD      2     CURRENT TIME STEP:      49     ITERATIONS:      17

 -----------------------------------------------------------------------------------

   CUMULATIVE VOLUMES               L**3   RATES FOR THIS TIME STEP           L**3/T
   ------------------                      ------------------------

                                     IN                                         IN
                                     --                                         --
        PRECIPITATION =        1527531.73          PRECIPITATION =                  
           STREAMFLOW =                               STREAMFLOW =                  
     GW BOUNDARY FLOW =                         GW BOUNDARY FLOW =                  
                WELLS =            189.99                  WELLS =             32.60


                                    OUT                                        OUT
                                    ---                                        ---
   EVAPOTRANSPIRATION =        1073264.70     EVAPOTRANSPIRATION =          22419.36
           STREAMFLOW =         338697.34             STREAMFLOW =           8710.24
     GW BOUNDARY FLOW =          35467.39       GW BOUNDARY FLOW =            723.96
                WELLS =          94677.52                  WELLS =           1375.72

   INFLOWS - OUTFLOWS =         -14385.23     INFLOWS - OUTFLOWS =         -33196.69
             --------                                   --------

 TOTAL STORAGE CHANGE =         -13065.15         STORAGE CHANGE =         -33174.99
       --------------                             --------------
         LAND SURFACE =            700.96           LAND SURFACE =          -5282.99
            SOIL ZONE =        1118748.87              SOIL ZONE =          -6333.34
     UNSATURATED ZONE =        -895906.37       UNSATURATED ZONE =         -15800.37
       SATURATED ZONE =        -236608.61         SATURATED ZONE =          -5758.30

 OVERALL BUDGET ERROR =          -1320.08           BUDGET ERROR =            -21.69


  PERCENT DISCREPANCY =             -0.09    PERCENT DISCREPANCY =             -0.07



1
 SUMMARY VOLUMETRIC BUDGET FOR GSFLOW 
 DATE: 11 25 1980              CUMULATIVE TIME STEP:      56
 MODFLOW STRESS PERIOD      2     CURRENT TIME STEP:      56     ITERATIONS:      11

 -----------------------------------------------------------------------------------

   CUMULATIVE VOLUMES               L**3   RATES FOR THIS TIME STEP           L**3/T
   ------------------                      ------------------------

                                     IN                                         IN
                                     --                                         --
        PRECIPITATION =        1583878.73          PRECIPITATION =                  
           STREAMFLOW =                               STREAMFLOW =                  
     GW BOUNDARY FLOW =                         GW BOUNDARY FLOW =                  
                WELLS =            336.54                  WELLS =             20.78


                                    OUT                                        OUT
                                    ---                                        ---
   EVAPOTRANSPIRATION =        1171726.46     EVAPOTRANSPIRATION =          12840.17
           STREAMFLOW =         400040.59             STREAMFLOW =           8908.57
     GW BOUNDARY FLOW =          40535.28       GW BOUNDARY FLOW =            724.00
                WELLS =         104181.87                  WELLS =           1346.19

   INFLOWS - OUTFLOWS =        -132268.93     INFLOWS - OUTFLOWS =         -23798.15
             --------                                   --------

 TOTAL STORAGE CHANGE =        -130801.34         STORAGE CHANGE =         -23777.57
       --------------                             --------------
         LAND SURFACE =          41331.51           LAND SURFACE =         -13376.93
            SOIL ZONE =        1111243.57              SOIL ZONE =          11072.92
     UNSATURATED ZONE =       -1004246.48       UNSATURATED ZONE =         -15209.75
       SATURATED ZONE =        -279129.94         SATURATED ZONE =          -6263.81

 OVERALL BUDGET ERROR =          -1467.58           BUDGET ERROR =            -20.58


  PERCENT DISCREPANCY =             -0.09    PERCENT DISCREPANCY =             -0.09



1
 SUMMARY VOLUMETRIC BUDGET FOR GSFLOW 
 DATE: 12 02 1980              CUMULATIVE TIME STEP:      63
 MODFLOW STRESS PERIOD      2     CURRENT TIME STEP:      63     ITERATIONS:      11

 -----------------------------------------------------------------------------------

   CUMULATIVE VOLUMES               L**3   RATES FOR THIS TIME STEP           L**3/T
   ------------------                      ------------------------

                                     IN                                         IN
                                     --                                         --
        PRECIPITATION =        2084797.03          PRECIPITATION =         217997.75
           STREAMFLOW =                               STREAMFLOW =                  
     GW BOUNDARY FLOW =                         GW BOUNDARY FLOW =                  
                WELLS =            484.72                  WELLS =             21.44


                                    OUT                                        OUT
                                    ---                                        ---
   EVAPOTRANSPIRATION =        1326229.07     EVAPOTRANSPIRATION =           9909.91
           STREAMFLOW =         475716.56             STREAMFLOW =          12865.55
     GW BOUNDARY FLOW =          45604.83       GW BOUNDARY FLOW =            724.53
                WELLS =         113512.21                  WELLS =           1323.67

   INFLOWS - OUTFLOWS =         124219.07     INFLOWS - OUTFLOWS =         193195.54
             --------                                   --------

 TOTAL STORAGE CHANGE =         125824.65         STORAGE CHANGE =         193214.74
       --------------                             --------------
         LAND SURFACE =         279295.42           LAND SURFACE =         190220.62
            SOIL ZONE =        1277253.15              SOIL ZONE =          23594.43
     UNSATURATED ZONE =       -1107775.47       UNSATURATED ZONE =         -14334.56
       SATURATED ZONE =        -322948.46         SATURATED ZONE =          -6265.75

 OVERALL BUDGET ERROR =          -1605.58           BUDGET ERROR =            -19.20


  PERCENT DISCREPANCY =             -0.08    PERCENT DISCREPANCY =             -0.01



1
 SUMMARY VOLUMETRIC BUDGET FOR GSFLOW 
 DATE: 12 09 1980              CUMULATIVE TIME STEP:      70
 MODFLOW STRESS PERIOD      2     CURRENT TIME STEP:      70     ITERATIONS:      11

 -----------------------------------------------------------------------------------

   CUMULATIVE VOLUMES               L**3   RATES FOR THIS TIME STEP           L**3/T
   ------------------                      ------------------------

                                     IN                                         IN
                                     --                                         --
        PRECIPITATION =        3709398.40          PRECIPITATION =                  
           STREAMFLOW =                               STREAMFLOW =                  
     GW BOUNDARY FLOW =                         GW BOUNDARY FLOW =                  
                WELLS =            637.11                  WELLS =             22.00


                                    OUT                                        OUT
                                    ---                                        ---
   EVAPOTRANSPIRATION =        1363491.47     EVAPOTRANSPIRATION =          12841.84
           STREAMFLOW =         565625.87             STREAMFLOW =          13362.24
     GW BOUNDARY FLOW =          50677.43       GW BOUNDARY FLOW =            724.75
                WELLS =         122702.93                  WELLS =           1305.45

   INFLOWS - OUTFLOWS =        1607537.81     INFLOWS - OUTFLOWS =         -28212.27
             --------                                   --------

 TOTAL STORAGE CHANGE =        1609273.09         STORAGE CHANGE =         -28194.29
       --------------                             --------------
         LAND SURFACE =        1866133.18           LAND SURFACE =         -12841.84
            SOIL ZONE =        1318365.63              SOIL ZONE =           5338.76
     UNSATURATED ZONE =       -1206389.47       UNSATURATED ZONE =         -13906.47
       SATURATED ZONE =        -368836.25         SATURATED ZONE =          -6784.74

 OVERALL BUDGET ERROR =          -1735.28           BUDGET ERROR =            -17.98


  PERCENT DISCREPANCY =             -0.05    PERCENT DISCREPANCY =             -0.06



1
 SUMMARY VOLUMETRIC BUDGET FOR GSFLOW 
 DATE: 12 16 1980              CUMULATIVE TIME STEP:      77
 MODFLOW STRESS PERIOD      2     CURRENT TIME STEP:      77     ITERATIONS:      11

 -----------------------------------------------------------------------------------

   CUMULATIVE VOLUMES               L**3   RATES FOR THIS TIME STEP           L**3/T
   ------------------                      ------------------------

                                     IN                                         IN
                                     --                                         --
        PRECIPITATION =        3709398.40          PRECIPITATION =                  
           STREAMFLOW =                               STREAMFLOW =                  
     GW BOUNDARY FLOW =                         GW BOUNDARY FLOW =                  
                WELLS =            792.97                  WELLS =             22.44


                                    OUT                                        OUT
                                    ---                                        ---
   EVAPOTRANSPIRATION =        1583064.94     EVAPOTRANSPIRATION =          50769.82
           STREAMFLOW =         720552.78             STREAMFLOW =          40671.64
     GW BOUNDARY FLOW =          55755.61       GW BOUNDARY FLOW =            726.93
                WELLS =         131779.75                  WELLS =           1290.57

   INFLOWS - OUTFLOWS =        1219038.30     INFLOWS - OUTFLOWS =         -93436.51
             --------                                   --------

 TOTAL STORAGE CHANGE =        1220896.45         STORAGE CHANGE =         -93419.27
       --------------                             --------------
         LAND SURFACE =        1097394.69           LAND SURFACE =        -242595.26
            SOIL ZONE =        1834284.43              SOIL ZONE =         165975.44
     UNSATURATED ZONE =       -1296311.87       UNSATURATED ZONE =         -11038.37
       SATURATED ZONE =        -414470.80         SATURATED ZONE =          -5761.09

 OVERALL BUDGET ERROR =          -1858.16           BUDGET ERROR =            -17.23


  PERCENT DISCREPANCY =             -0.05    PERCENT DISCREPANCY =             -0.02



1
 SUMMARY VOLUMETRIC BUDGET FOR GSFLOW 
 DATE: 12 23 1980              CUMULATIVE TIME STEP:      84
 MODFLOW STRESS PERIOD      2     CURRENT TIME STEP:      84     ITERATIONS:      12

 -----------------------------------------------------------------------------------

   CUMULATIVE VOLUMES               L**3   RATES FOR THIS TIME STEP           L**3/T
   ------------------                      ------------------------

                                     IN                                         IN
                                     --                                         --
        PRECIPITATION =        3709398.40          PRECIPITATION =                  
           STREAMFLOW =                               STREAMFLOW =                  
     GW BOUNDARY FLOW =                         GW BOUNDARY FLOW =                  
                WELLS =            951.63                  WELLS =             22.83


                                    OUT                                        OUT
                                    ---                                        ---
   EVAPOTRANSPIRATION =        1862162.83     EVAPOTRANSPIRATION =          39390.80
           STREAMFLOW =         982999.53             STREAMFLOW =          29839.85
     GW BOUNDARY FLOW =          60850.81       GW BOUNDARY FLOW =            727.66
                WELLS =         140762.93                  WELLS =           1278.13

   INFLOWS - OUTFLOWS =         663573.94     INFLOWS - OUTFLOWS =         -71213.61
             --------                                   --------

 TOTAL STORAGE CHANGE =         665547.07         STORAGE CHANGE =         -71198.00
       --------------                             --------------
         LAND SURFACE =         399376.49           LAND SURFACE =         -51279.29
            SOIL ZONE =        2094588.46              SOIL ZONE =          -2721.60
     UNSATURATED ZONE =       -1367172.10       UNSATURATED ZONE =         -10018.09
       SATURATED ZONE =        -461245.79         SATURATED ZONE =          -7179.02

 OVERALL BUDGET ERROR =          -1973.13           BUDGET ERROR =            -15.61


  PERCENT DISCREPANCY =             -0.05    PERCENT DISCREPANCY =             -0.02



1
 SUMMARY VOLUMETRIC BUDGET FOR GSFLOW 
 DATE: 12 30 1980              CUMULATIVE TIME STEP:      91
 MODFLOW STRESS PERIOD      2     CURRENT TIME STEP:      91     ITERATIONS:      12

 -----------------------------------------------------------------------------------

   CUMULATIVE VOLUMES               L**3   RATES FOR THIS TIME STEP           L**3/T
   ------------------                      ------------------------

                                     IN                                         IN
                                     --                                         --
        PRECIPITATION =        3709398.40          PRECIPITATION =                  
           STREAMFLOW =                               STREAMFLOW =                  
     GW BOUNDARY FLOW =                         GW BOUNDARY FLOW =                  
                WELLS =           1124.94                  WELLS =             27.15


                                    OUT                                        OUT
                                    ---                                        ---
   EVAPOTRANSPIRATION =        2259446.52     EVAPOTRANSPIRATION =          57902.87
           STREAMFLOW =        1163375.95             STREAMFLOW =          20075.79
     GW BOUNDARY FLOW =          65940.33       GW BOUNDARY FLOW =            726.47
                WELLS =         148588.88                  WELLS =            909.08

   INFLOWS - OUTFLOWS =          73171.67     INFLOWS - OUTFLOWS =         -79587.06
             --------                                   --------

 TOTAL STORAGE CHANGE =          75247.48         STORAGE CHANGE =         -79572.94
       --------------                             --------------
         LAND SURFACE =          46840.62           LAND SURFACE =         -16420.20
            SOIL ZONE =        1978124.14              SOIL ZONE =         -44972.31
     UNSATURATED ZONE =       -1436942.69       UNSATURATED ZONE =         -10497.57
       SATURATED ZONE =        -512774.59         SATURATED ZONE =          -7682.86

 OVERALL BUDGET ERROR =          -2075.81           BUDGET ERROR =            -14.13


  PERCENT DISCREPANCY =             -0.06    PERCENT DISCREPANCY =             -0.02



1
 SUMMARY VOLUMETRIC BUDGET FOR GSFLOW 
 DATE: 01 06 1981              CUMULATIVE TIME STEP:      98
 MODFLOW STRESS PERIOD      2     CURRENT TIME STEP:      98     ITERATIONS:      11

 -----------------------------------------------------------------------------------

   CUMULATIVE VOLUMES               L**3   RATES FOR THIS TIME STEP           L**3/T
   ------------------                      ------------------------

                                     IN                                         IN
                                     --                                         --
        PRECIPITATION =        3929400.55          PRECIPITATION =                  
           STREAMFLOW =                               STREAMFLOW =                  
     GW BOUNDARY FLOW =                         GW BOUNDARY FLOW =                  
                WELLS =           1313.33                  WELLS =             26.62


                                    OUT                                        OUT
                                    ---                                        ---
   EVAPOTRANSPIRATION =        2538509.62     EVAPOTRANSPIRATION =          31343.39
           STREAMFLOW =        1280453.49             STREAMFLOW =          16612.76
     GW BOUNDARY FLOW =          71020.54       GW BOUNDARY FLOW =            725.58
                WELLS =         154926.88                  WELLS =            902.68

   INFLOWS - OUTFLOWS =        -114196.64     INFLOWS - OUTFLOWS =         -49557.78
             --------                                   --------

 TOTAL STORAGE CHANGE =        -112023.76         STORAGE CHANGE =         -49544.52
       --------------                             --------------
         LAND SURFACE =          32663.34           LAND SURFACE =         -26441.91
            SOIL ZONE =        1937817.47              SOIL ZONE =          -4033.07
     UNSATURATED ZONE =       -1514793.97       UNSATURATED ZONE =         -10965.45
       SATURATED ZONE =        -567710.60         SATURATED ZONE =          -8104.10

 OVERALL BUDGET ERROR =          -2172.88           BUDGET ERROR =            -13.26


  PERCENT DISCREPANCY =             -0.05    PERCENT DISCREPANCY =             -0.03



1
 SUMMARY VOLUMETRIC BUDGET FOR GSFLOW 
 DATE: 01 13 1981              CUMULATIVE TIME STEP:     105
 MODFLOW STRESS PERIOD      2     CURRENT TIME STEP:     105     ITERATIONS:      11

 -----------------------------------------------------------------------------------

   CUMULATIVE VOLUMES               L**3   RATES FOR THIS TIME STEP           L**3/T
   ------------------                      ------------------------

                                     IN                                         IN
                                     --                                         --
        PRECIPITATION =        3929400.55          PRECIPITATION =                  
           STREAMFLOW =                               STREAMFLOW =                  
     GW BOUNDARY FLOW =                         GW BOUNDARY FLOW =                  
                WELLS =           1496.98                  WELLS =             25.95


                                    OUT                                        OUT
                                    ---                                        ---
   EVAPOTRANSPIRATION =        2794686.34     EVAPOTRANSPIRATION =          37831.80
           STREAMFLOW =        1382150.90             STREAMFLOW =          12519.55
     GW BOUNDARY FLOW =          76097.60       GW BOUNDARY FLOW =            725.00
                WELLS =         161222.01                  WELLS =            896.88

   INFLOWS - OUTFLOWS =        -483259.32     INFLOWS - OUTFLOWS =         -51947.27
             --------                                   --------

 TOTAL STORAGE CHANGE =        -480997.04         STORAGE CHANGE =         -51934.91
       --------------                             --------------
         LAND SURFACE =          18261.21           LAND SURFACE =           -714.57
            SOIL ZONE =        1720724.08              SOIL ZONE =         -31163.74
     UNSATURATED ZONE =       -1593015.20       UNSATURATED ZONE =         -11307.70
       SATURATED ZONE =        -626967.14         SATURATED ZONE =          -8748.90

 OVERALL BUDGET ERROR =          -2262.28           BUDGET ERROR =            -12.36


  PERCENT DISCREPANCY =             -0.05    PERCENT DISCREPANCY =             -0.02



1
 SUMMARY VOLUMETRIC BUDGET FOR GSFLOW 
 DATE: 01 20 1981              CUMULATIVE TIME STEP:     112
 MODFLOW STRESS PERIOD      2     CURRENT TIME STEP:     112     ITERATIONS:      12

 -----------------------------------------------------------------------------------

   CUMULATIVE VOLUMES               L**3   RATES FOR THIS TIME STEP           L**3/T
   ------------------                      ------------------------

                                     IN                                         IN
                                     --                                         --
        PRECIPITATION =        3934797.64          PRECIPITATION =                  
           STREAMFLOW =                               STREAMFLOW =                  
     GW BOUNDARY FLOW =                         GW BOUNDARY FLOW =                  
                WELLS =           1676.14                  WELLS =             25.33


                                    OUT                                        OUT
                                    ---                                        ---
   EVAPOTRANSPIRATION =        3066142.08     EVAPOTRANSPIRATION =          42828.48
           STREAMFLOW =        1454815.56             STREAMFLOW =           9095.70
     GW BOUNDARY FLOW =          81170.33       GW BOUNDARY FLOW =            724.44
                WELLS =         167479.36                  WELLS =            891.77

   INFLOWS - OUTFLOWS =        -833133.56     INFLOWS - OUTFLOWS =         -53515.05
             --------                                   --------

 TOTAL STORAGE CHANGE =        -830787.89         STORAGE CHANGE =         -53503.53
       --------------                             --------------
         LAND SURFACE =          12470.36           LAND SURFACE =          -1499.07
            SOIL ZONE =        1518270.36              SOIL ZONE =         -31760.11
     UNSATURATED ZONE =       -1671525.79       UNSATURATED ZONE =         -11086.92
       SATURATED ZONE =        -690002.82         SATURATED ZONE =          -9157.42

 OVERALL BUDGET ERROR =          -2345.67           BUDGET ERROR =            -11.53


  PERCENT DISCREPANCY =             -0.05    PERCENT DISCREPANCY =             -0.02



1
 SUMMARY VOLUMETRIC BUDGET FOR GSFLOW 
 DATE: 01 27 1981              CUMULATIVE TIME STEP:     119
 MODFLOW STRESS PERIOD      2     CURRENT TIME STEP:     119     ITERATIONS:      12

 -----------------------------------------------------------------------------------

   CUMULATIVE VOLUMES               L**3   RATES FOR THIS TIME STEP           L**3/T
   ------------------                      ------------------------

                                     IN                                         IN
                                     --                                         --
        PRECIPITATION =        6080782.22          PRECIPITATION =        1101441.08
           STREAMFLOW =                               STREAMFLOW =                  
     GW BOUNDARY FLOW =                         GW BOUNDARY FLOW =                  
                WELLS =           1849.29                  WELLS =             23.90


                                    OUT                                        OUT
                                    ---                                        ---
   EVAPOTRANSPIRATION =        3225634.07     EVAPOTRANSPIRATION =          10796.47
           STREAMFLOW =        1526542.99             STREAMFLOW =          11001.63
     GW BOUNDARY FLOW =          86241.46       GW BOUNDARY FLOW =            724.53
                WELLS =         173704.03                  WELLS =            887.54

   INFLOWS - OUTFLOWS =        1070508.96     INFLOWS - OUTFLOWS =        1078054.81
             --------                                   --------

 TOTAL STORAGE CHANGE =        1072931.24         STORAGE CHANGE =        1078065.25
       --------------                             --------------
         LAND SURFACE =        1935714.63           LAND SURFACE =        1090644.60
            SOIL ZONE =        1638258.83              SOIL ZONE =           7252.02
     UNSATURATED ZONE =       -1746366.99       UNSATURATED ZONE =         -10501.35
       SATURATED ZONE =        -754675.23         SATURATED ZONE =          -9330.02

 OVERALL BUDGET ERROR =          -2422.28           BUDGET ERROR =            -10.44


  PERCENT DISCREPANCY =             -0.04    PERCENT DISCREPANCY =             -0.00



1
 SUMMARY VOLUMETRIC BUDGET FOR GSFLOW 
 DATE: 02 03 1981              CUMULATIVE TIME STEP:     126
 MODFLOW STRESS PERIOD      2     CURRENT TIME STEP:     126     ITERATIONS:      13

 -----------------------------------------------------------------------------------

   CUMULATIVE VOLUMES               L**3   RATES FOR THIS TIME STEP           L**3/T
   ------------------                      ------------------------

                                     IN                                         IN
                                     --                                         --
        PRECIPITATION =        8802115.43          PRECIPITATION =                  
           STREAMFLOW =                               STREAMFLOW =                  
     GW BOUNDARY FLOW =                         GW BOUNDARY FLOW =                  
                WELLS =           1999.46                  WELLS =              6.52


                                    OUT                                        OUT
                                    ---                                        ---
   EVAPOTRANSPIRATION =        3274654.48     EVAPOTRANSPIRATION =          13261.65
           STREAMFLOW =        1613154.37             STREAMFLOW =          13377.22
     GW BOUNDARY FLOW =          91314.29       GW BOUNDARY FLOW =            724.83
                WELLS =         182387.02                  WELLS =            810.32

   INFLOWS - OUTFLOWS =        3642604.74     INFLOWS - OUTFLOWS =         -28167.50
             --------                                   --------

 TOTAL STORAGE CHANGE =        3645096.39         STORAGE CHANGE =         -28157.98
       --------------                             --------------
         LAND SURFACE =        4608027.43           LAND SURFACE =         -13261.65
            SOIL ZONE =        1678008.71              SOIL ZONE =           4613.17
     UNSATURATED ZONE =       -1818148.84       UNSATURATED ZONE =         -10057.54
       SATURATED ZONE =        -822790.91         SATURATED ZONE =          -9451.97

 OVERALL BUDGET ERROR =          -2491.65           BUDGET ERROR =             -9.52


  PERCENT DISCREPANCY =             -0.03    PERCENT DISCREPANCY =             -0.03



1
 SUMMARY VOLUMETRIC BUDGET FOR GSFLOW 
 DATE: 02 10 1981              CUMULATIVE TIME STEP:     133
 MODFLOW STRESS PERIOD      2     CURRENT TIME STEP:     133     ITERATIONS:      12

 -----------------------------------------------------------------------------------

   CUMULATIVE VOLUMES               L**3   RATES FOR THIS TIME STEP           L**3/T
   ------------------                      ------------------------

                                     IN                                         IN
                                     --                                         --
        PRECIPITATION =        8811949.58          PRECIPITATION =                  
           STREAMFLOW =                               STREAMFLOW =                  
     GW BOUNDARY FLOW =                         GW BOUNDARY FLOW =                  
                WELLS =           2086.87                  WELLS =             12.79


                                    OUT                                        OUT
                                    ---                                        ---
   EVAPOTRANSPIRATION =        3382933.00     EVAPOTRANSPIRATION =          21067.61
           STREAMFLOW =        1713722.05             STREAMFLOW =          14939.31
     GW BOUNDARY FLOW =          96389.14       GW BOUNDARY FLOW =            725.07
                WELLS =         188030.68                  WELLS =            798.84

   INFLOWS - OUTFLOWS =        3432961.57     INFLOWS - OUTFLOWS =         -37518.04
             --------                                   --------

 TOTAL STORAGE CHANGE =        3435516.77         STORAGE CHANGE =         -37509.26
       --------------                             --------------
         LAND SURFACE =        4509583.05           LAND SURFACE =         -21067.61
            SOIL ZONE =        1703325.08              SOIL ZONE =           3016.50
     UNSATURATED ZONE =       -1886878.30       UNSATURATED ZONE =          -9627.09
       SATURATED ZONE =        -890513.06         SATURATED ZONE =          -9831.06

 OVERALL BUDGET ERROR =          -2555.20           BUDGET ERROR =             -8.78


  PERCENT DISCREPANCY =             -0.03    PERCENT DISCREPANCY =             -0.02



1
 SUMMARY VOLUMETRIC BUDGET FOR GSFLOW 
 DATE: 02 17 1981              CUMULATIVE TIME STEP:     140
 MODFLOW STRESS PERIOD      2     CURRENT TIME STEP:     140     ITERATIONS:      12

 -----------------------------------------------------------------------------------

   CUMULATIVE VOLUMES               L**3   RATES FOR THIS TIME STEP           L**3/T
   ------------------                      ------------------------

                                     IN                                         IN
                                     --                                         --
        PRECIPITATION =        1.0087D+07          PRECIPITATION =         108298.87
           STREAMFLOW =                               STREAMFLOW =                  
     GW BOUNDARY FLOW =                         GW BOUNDARY FLOW =                  
                WELLS =           2173.32                  WELLS =             15.33


                                    OUT                                        OUT
                                    ---                                        ---
   EVAPOTRANSPIRATION =        3672212.33     EVAPOTRANSPIRATION =          61910.07
           STREAMFLOW =        2269766.15             STREAMFLOW =         141650.12
     GW BOUNDARY FLOW =         101493.07       GW BOUNDARY FLOW =            733.72
                WELLS =         194558.82                  WELLS =           1271.06

   INFLOWS - OUTFLOWS =        3850750.11     INFLOWS - OUTFLOWS =         -97250.78
             --------                                   --------

 TOTAL STORAGE CHANGE =        3853368.24         STORAGE CHANGE =         -97242.05
       --------------                             --------------
         LAND SURFACE =        3727977.25           LAND SURFACE =        -273469.63
            SOIL ZONE =        2977331.92              SOIL ZONE =         176811.10
     UNSATURATED ZONE =       -1905807.87       UNSATURATED ZONE =           6406.94
       SATURATED ZONE =        -946133.06         SATURATED ZONE =          -6990.47

 OVERALL BUDGET ERROR =          -2618.13           BUDGET ERROR =             -8.73


  PERCENT DISCREPANCY =             -0.03    PERCENT DISCREPANCY =             -0.00



1
 SUMMARY VOLUMETRIC BUDGET FOR GSFLOW 
 DATE: 02 24 1981              CUMULATIVE TIME STEP:     147
 MODFLOW STRESS PERIOD      2     CURRENT TIME STEP:     147     ITERATIONS:      12

 -----------------------------------------------------------------------------------

   CUMULATIVE VOLUMES               L**3   RATES FOR THIS TIME STEP           L**3/T
   ------------------                      ------------------------

                                     IN                                         IN
                                     --                                         --
        PRECIPITATION =        1.0560D+07          PRECIPITATION =         473376.13
           STREAMFLOW =                               STREAMFLOW =                  
     GW BOUNDARY FLOW =                         GW BOUNDARY FLOW =                  
                WELLS =           2300.40                  WELLS =             18.86


                                    OUT                                        OUT
                                    ---                                        ---
   EVAPOTRANSPIRATION =        4028433.77     EVAPOTRANSPIRATION =          20787.25
           STREAMFLOW =        2979462.59             STREAMFLOW =         115684.50
     GW BOUNDARY FLOW =         106628.45       GW BOUNDARY FLOW =            733.59
                WELLS =         202599.16                  WELLS =            876.00

   INFLOWS - OUTFLOWS =        3245159.69     INFLOWS - OUTFLOWS =         335313.66
             --------                                   --------

 TOTAL STORAGE CHANGE =        3247833.57         STORAGE CHANGE =         335321.78
       --------------                             --------------
         LAND SURFACE =        3023506.06           LAND SURFACE =         234737.79
            SOIL ZONE =        3077314.28              SOIL ZONE =          97549.54
     UNSATURATED ZONE =       -1846775.34       UNSATURATED ZONE =          10622.02
       SATURATED ZONE =       -1006211.43         SATURATED ZONE =          -7587.58

 OVERALL BUDGET ERROR =          -2673.87           BUDGET ERROR =             -8.12


  PERCENT DISCREPANCY =             -0.03    PERCENT DISCREPANCY =             -0.00



1
 SUMMARY VOLUMETRIC BUDGET FOR GSFLOW 
 DATE: 03 03 1981              CUMULATIVE TIME STEP:     154
 MODFLOW STRESS PERIOD      2     CURRENT TIME STEP:     154     ITERATIONS:      12

 -----------------------------------------------------------------------------------

   CUMULATIVE VOLUMES               L**3   RATES FOR THIS TIME STEP           L**3/T
   ------------------                      ------------------------

                                     IN                                         IN
                                     --                                         --
        PRECIPITATION =        1.1273D+07          PRECIPITATION =                  
           STREAMFLOW =                               STREAMFLOW =                  
     GW BOUNDARY FLOW =                         GW BOUNDARY FLOW =                  
                WELLS =           2417.55                  WELLS =             24.23


                                    OUT                                        OUT
                                    ---                                        ---
   EVAPOTRANSPIRATION =        4145176.40     EVAPOTRANSPIRATION =          40276.78
           STREAMFLOW =        3340273.15             STREAMFLOW =          37817.05
     GW BOUNDARY FLOW =         111743.34       GW BOUNDARY FLOW =            728.96
                WELLS =         209627.21                  WELLS =            899.18

   INFLOWS - OUTFLOWS =        3468926.48     INFLOWS - OUTFLOWS =         -79697.74
             --------                                   --------

 TOTAL STORAGE CHANGE =        3471639.42         STORAGE CHANGE =         -79693.00
       --------------                             --------------
         LAND SURFACE =        3608151.33           LAND SURFACE =         -51855.94
            SOIL ZONE =        2748944.24              SOIL ZONE =         -19975.67
     UNSATURATED ZONE =       -1812288.03       UNSATURATED ZONE =           1585.10
       SATURATED ZONE =       -1073168.13         SATURATED ZONE =          -9446.50

 OVERALL BUDGET ERROR =          -2712.94           BUDGET ERROR =             -4.74


  PERCENT DISCREPANCY =             -0.02    PERCENT DISCREPANCY =             -0.01



1
 SUMMARY VOLUMETRIC BUDGET FOR GSFLOW 
 DATE: 03 10 1981              CUMULATIVE TIME STEP:     161
 MODFLOW STRESS PERIOD      2     CURRENT TIME STEP:     161     ITERATIONS:      12

 -----------------------------------------------------------------------------------

   CUMULATIVE VOLUMES               L**3   RATES FOR THIS TIME STEP           L**3/T
   ------------------                      ------------------------

                                     IN                                         IN
                                     --                                         --
        PRECIPITATION =        1.1273D+07          PRECIPITATION =                  
           STREAMFLOW =                               STREAMFLOW =                  
     GW BOUNDARY FLOW =                         GW BOUNDARY FLOW =                  
                WELLS =           2587.92                  WELLS =             27.69


                                    OUT                                        OUT
                                    ---                                        ---
   EVAPOTRANSPIRATION =        4437960.02     EVAPOTRANSPIRATION =          78046.89
           STREAMFLOW =        3676703.84             STREAMFLOW =          72097.89
     GW BOUNDARY FLOW =         116846.41       GW BOUNDARY FLOW =            730.42
                WELLS =         214783.26                  WELLS =            526.87

   INFLOWS - OUTFLOWS =        2829623.41     INFLOWS - OUTFLOWS =        -151374.38
             --------                                   --------

 TOTAL STORAGE CHANGE =        2832369.30         STORAGE CHANGE =        -151369.03
       --------------                             --------------
         LAND SURFACE =        2845840.99           LAND SURFACE =        -220175.79
            SOIL ZONE =        2912466.13              SOIL ZONE =          70319.18
     UNSATURATED ZONE =       -1790869.57       UNSATURATED ZONE =           6235.82
       SATURATED ZONE =       -1135068.25         SATURATED ZONE =          -7748.24

 OVERALL BUDGET ERROR =          -2745.89           BUDGET ERROR =             -5.35


  PERCENT DISCREPANCY =             -0.02    PERCENT DISCREPANCY =             -0.00



1
 SUMMARY VOLUMETRIC BUDGET FOR GSFLOW 
 DATE: 03 17 1981              CUMULATIVE TIME STEP:     168
 MODFLOW STRESS PERIOD      2     CURRENT TIME STEP:     168     ITERATIONS:      12

 -----------------------------------------------------------------------------------

   CUMULATIVE VOLUMES               L**3   RATES FOR THIS TIME STEP           L**3/T
   ------------------                      ------------------------

                                     IN                                         IN
                                     --                                         --
        PRECIPITATION =        1.1499D+07          PRECIPITATION =                  
           STREAMFLOW =                               STREAMFLOW =                  
     GW BOUNDARY FLOW =                         GW BOUNDARY FLOW =                  
                WELLS =           2778.07                  WELLS =             26.63


                                    OUT                                        OUT
                                    ---                                        ---
   EVAPOTRANSPIRATION =        4723588.63     EVAPOTRANSPIRATION =          29980.50
           STREAMFLOW =        4005185.61             STREAMFLOW =          30555.38
     GW BOUNDARY FLOW =         121954.56       GW BOUNDARY FLOW =            728.26
                WELLS =         218441.95                  WELLS =            519.56

   INFLOWS - OUTFLOWS =        2433007.05     INFLOWS - OUTFLOWS =         -61757.08
             --------                                   --------

 TOTAL STORAGE CHANGE =        2435778.68         STORAGE CHANGE =         -61754.38
       --------------                             --------------
         LAND SURFACE =        2718357.93           LAND SURFACE =         -29709.91
            SOIL ZONE =        2681213.12              SOIL ZONE =         -22602.36
     UNSATURATED ZONE =       -1764127.43       UNSATURATED ZONE =            301.85
       SATURATED ZONE =       -1199664.94         SATURATED ZONE =          -9743.96

 OVERALL BUDGET ERROR =          -2771.63           BUDGET ERROR =             -2.69


  PERCENT DISCREPANCY =             -0.02    PERCENT DISCREPANCY =             -0.00



1
 SUMMARY VOLUMETRIC BUDGET FOR GSFLOW 
 DATE: 03 24 1981              CUMULATIVE TIME STEP:     175
 MODFLOW STRESS PERIOD      2     CURRENT TIME STEP:     175     ITERATIONS:      12

 -----------------------------------------------------------------------------------

   CUMULATIVE VOLUMES               L**3   RATES FOR THIS TIME STEP           L**3/T
   ------------------                      ------------------------

                                     IN                                         IN
                                     --                                         --
        PRECIPITATION =        1.2888D+07          PRECIPITATION =                  
           STREAMFLOW =                               STREAMFLOW =                  
     GW BOUNDARY FLOW =                         GW BOUNDARY FLOW =                  
                WELLS =           2946.78                  WELLS =             24.39


                                    OUT                                        OUT
                                    ---                                        ---
   EVAPOTRANSPIRATION =        4971051.49     EVAPOTRANSPIRATION =          70526.45
           STREAMFLOW =        4201332.02             STREAMFLOW =          33333.70
     GW BOUNDARY FLOW =         127046.76       GW BOUNDARY FLOW =            727.42
                WELLS =         223833.92                  WELLS =            949.64

   INFLOWS - OUTFLOWS =        3367373.28     INFLOWS - OUTFLOWS =        -105512.82
             --------                                   --------

 TOTAL STORAGE CHANGE =        3370162.42         STORAGE CHANGE =        -105509.83
       --------------                             --------------
         LAND SURFACE =        3859792.28           LAND SURFACE =         -89828.78
            SOIL ZONE =        2560581.80              SOIL ZONE =          -3399.65
     UNSATURATED ZONE =       -1780559.02       UNSATURATED ZONE =          -2508.51
       SATURATED ZONE =       -1269652.64         SATURATED ZONE =          -9772.88

 OVERALL BUDGET ERROR =          -2789.15           BUDGET ERROR =             -2.99


  PERCENT DISCREPANCY =             -0.02    PERCENT DISCREPANCY =             -0.00



1
 SUMMARY VOLUMETRIC BUDGET FOR GSFLOW 
 DATE: 03 31 1981              CUMULATIVE TIME STEP:     182
 MODFLOW STRESS PERIOD      2     CURRENT TIME STEP:     182     ITERATIONS:      12

 -----------------------------------------------------------------------------------

   CUMULATIVE VOLUMES               L**3   RATES FOR THIS TIME STEP           L**3/T
   ------------------                      ------------------------

                                     IN                                         IN
                                     --                                         --
        PRECIPITATION =        1.4484D+07          PRECIPITATION =                  
           STREAMFLOW =                               STREAMFLOW =                  
     GW BOUNDARY FLOW =                         GW BOUNDARY FLOW =                  
                WELLS =           3116.01                  WELLS =             24.01


                                    OUT                                        OUT
                                    ---                                        ---
   EVAPOTRANSPIRATION =        5244738.23     EVAPOTRANSPIRATION =          24457.83
           STREAMFLOW =        4581976.11             STREAMFLOW =          38683.08
     GW BOUNDARY FLOW =         132152.62       GW BOUNDARY FLOW =            728.99
                WELLS =         230398.36                  WELLS =            929.66

   INFLOWS - OUTFLOWS =        4297428.20     INFLOWS - OUTFLOWS =         -64775.55
             --------                                   --------

 TOTAL STORAGE CHANGE =        4300234.78         STORAGE CHANGE =         -64773.40
       --------------                             --------------
         LAND SURFACE =        4685437.18           LAND SURFACE =         -24777.73
            SOIL ZONE =        2711734.88              SOIL ZONE =         -31401.37
     UNSATURATED ZONE =       -1760513.39       UNSATURATED ZONE =           1727.36
       SATURATED ZONE =       -1336423.89         SATURATED ZONE =         -10321.66

 OVERALL BUDGET ERROR =          -2806.58           BUDGET ERROR =             -2.14


  PERCENT DISCREPANCY =             -0.02    PERCENT DISCREPANCY =             -0.00



1
 SUMMARY VOLUMETRIC BUDGET FOR GSFLOW 
 DATE: 04 07 1981              CUMULATIVE TIME STEP:     189
 MODFLOW STRESS PERIOD      2     CURRENT TIME STEP:     189     ITERATIONS:      12

 -----------------------------------------------------------------------------------

   CUMULATIVE VOLUMES               L**3   RATES FOR THIS TIME STEP           L**3/T
   ------------------                      ------------------------

                                     IN                                         IN
                                     --                                         --
        PRECIPITATION =        1.4833D+07          PRECIPITATION =                  
           STREAMFLOW =                               STREAMFLOW =                  
     GW BOUNDARY FLOW =                         GW BOUNDARY FLOW =                  
                WELLS =           3282.55                  WELLS =             23.63


                                    OUT                                        OUT
                                    ---                                        ---
   EVAPOTRANSPIRATION =        5826661.90     EVAPOTRANSPIRATION =         124525.83
           STREAMFLOW =        5011344.51             STREAMFLOW =          78936.26
     GW BOUNDARY FLOW =         137261.55       GW BOUNDARY FLOW =            731.40
                WELLS =         236842.93                  WELLS =            914.52

   INFLOWS - OUTFLOWS =        3623866.08     INFLOWS - OUTFLOWS =        -205084.38
             --------                                   --------

 TOTAL STORAGE CHANGE =        3626692.33         STORAGE CHANGE =        -205081.10
       --------------                             --------------
         LAND SURFACE =        3942602.26           LAND SURFACE =        -234358.85
            SOIL ZONE =        2818285.16              SOIL ZONE =          30707.75
     UNSATURATED ZONE =       -1732827.93       UNSATURATED ZONE =           7455.17
       SATURATED ZONE =       -1401367.16         SATURATED ZONE =          -8885.16

 OVERALL BUDGET ERROR =          -2826.25           BUDGET ERROR =             -3.29


  PERCENT DISCREPANCY =             -0.02    PERCENT DISCREPANCY =             -0.00



1
 SUMMARY VOLUMETRIC BUDGET FOR GSFLOW 
 DATE: 04 14 1981              CUMULATIVE TIME STEP:     196
 MODFLOW STRESS PERIOD      2     CURRENT TIME STEP:     196     ITERATIONS:      12

 -----------------------------------------------------------------------------------

   CUMULATIVE VOLUMES               L**3   RATES FOR THIS TIME STEP           L**3/T
   ------------------                      ------------------------

                                     IN                                         IN
                                     --                                         --
        PRECIPITATION =        1.4833D+07          PRECIPITATION =                  
           STREAMFLOW =                               STREAMFLOW =                  
     GW BOUNDARY FLOW =                         GW BOUNDARY FLOW =                  
                WELLS =           3443.28                  WELLS =             22.82


                                    OUT                                        OUT
                                    ---                                        ---
   EVAPOTRANSPIRATION =        6636110.78     EVAPOTRANSPIRATION =         170582.13
           STREAMFLOW =        5552377.23             STREAMFLOW =          91588.56
     GW BOUNDARY FLOW =         142381.16       GW BOUNDARY FLOW =            731.89
                WELLS =         244497.20                  WELLS =           1327.22

   INFLOWS - OUTFLOWS =        2260771.34     INFLOWS - OUTFLOWS =        -264207.00
             --------                                   --------

 TOTAL STORAGE CHANGE =        2263615.97         STORAGE CHANGE =        -264204.14
       --------------                             --------------
         LAND SURFACE =        2550913.65           LAND SURFACE =        -280456.17
            SOIL ZONE =        2859629.71              SOIL ZONE =          16184.03
     UNSATURATED ZONE =       -1681347.33       UNSATURATED ZONE =           8815.38
       SATURATED ZONE =       -1465580.06         SATURATED ZONE =          -8747.37

 OVERALL BUDGET ERROR =          -2844.62           BUDGET ERROR =             -2.86


  PERCENT DISCREPANCY =             -0.02    PERCENT DISCREPANCY =             -0.00



1
 SUMMARY VOLUMETRIC BUDGET FOR GSFLOW 
 DATE: 04 21 1981              CUMULATIVE TIME STEP:     203
 MODFLOW STRESS PERIOD      2     CURRENT TIME STEP:     203     ITERATIONS:      12

 -----------------------------------------------------------------------------------

   CUMULATIVE VOLUMES               L**3   RATES FOR THIS TIME STEP           L**3/T
   ------------------                      ------------------------

                                     IN                                         IN
                                     --                                         --
        PRECIPITATION =        1.4976D+07          PRECIPITATION =                  
           STREAMFLOW =                               STREAMFLOW =                  
     GW BOUNDARY FLOW =                         GW BOUNDARY FLOW =                  
                WELLS =           3603.85                  WELLS =             23.01


                                    OUT                                        OUT
                                    ---                                        ---
   EVAPOTRANSPIRATION =        7613294.46     EVAPOTRANSPIRATION =         164993.93
           STREAMFLOW =        6079106.51             STREAMFLOW =          74705.47
     GW BOUNDARY FLOW =         147500.33       GW BOUNDARY FLOW =            730.78
                WELLS =         253657.65                  WELLS =           1296.20

   INFLOWS - OUTFLOWS =         886356.56     INFLOWS - OUTFLOWS =        -241703.37
             --------                                   --------

 TOTAL STORAGE CHANGE =         889213.67         STORAGE CHANGE =        -241701.81
       --------------                             --------------
         LAND SURFACE =        1345857.22           LAND SURFACE =        -142964.73
            SOIL ZONE =        2710943.58              SOIL ZONE =         -94996.07
     UNSATURATED ZONE =       -1635578.53       UNSATURATED ZONE =           5203.89
       SATURATED ZONE =       -1532008.59         SATURATED ZONE =          -8944.91

 OVERALL BUDGET ERROR =          -2857.11           BUDGET ERROR =             -1.56


  PERCENT DISCREPANCY =             -0.02    PERCENT DISCREPANCY =             -0.00



1
 SUMMARY VOLUMETRIC BUDGET FOR GSFLOW 
 DATE: 04 28 1981              CUMULATIVE TIME STEP:     210
 MODFLOW STRESS PERIOD      2     CURRENT TIME STEP:     210     ITERATIONS:      12

 -----------------------------------------------------------------------------------

   CUMULATIVE VOLUMES               L**3   RATES FOR THIS TIME STEP           L**3/T
   ------------------                      ------------------------

                                     IN                                         IN
                                     --                                         --
        PRECIPITATION =        1.5195D+07          PRECIPITATION =                  
           STREAMFLOW =                               STREAMFLOW =                  
     GW BOUNDARY FLOW =                         GW BOUNDARY FLOW =                  
                WELLS =           3765.51                  WELLS =             23.15


                                    OUT                                        OUT
                                    ---                                        ---
   EVAPOTRANSPIRATION =        8896725.98     EVAPOTRANSPIRATION =         212290.33
           STREAMFLOW =        6399773.77             STREAMFLOW =          39740.86
     GW BOUNDARY FLOW =         152602.90       GW BOUNDARY FLOW =            727.69
                WELLS =         262634.76                  WELLS =           1273.01

   INFLOWS - OUTFLOWS =        -513352.74     INFLOWS - OUTFLOWS =        -254008.73
             --------                                   --------

 TOTAL STORAGE CHANGE =        -510478.86         STORAGE CHANGE =        -254005.97
       --------------                             --------------
         LAND SURFACE =         618276.34           LAND SURFACE =         -78062.96
            SOIL ZONE =        2108209.55              SOIL ZONE =        -164886.40
     UNSATURATED ZONE =       -1631151.37       UNSATURATED ZONE =           -763.98
       SATURATED ZONE =       -1605813.37         SATURATED ZONE =         -10292.63

 OVERALL BUDGET ERROR =          -2873.88           BUDGET ERROR =             -2.76


  PERCENT DISCREPANCY =             -0.02    PERCENT DISCREPANCY =             -0.00



1
 SUMMARY VOLUMETRIC BUDGET FOR GSFLOW 
 DATE: 05 05 1981              CUMULATIVE TIME STEP:     217
 MODFLOW STRESS PERIOD      2     CURRENT TIME STEP:     217     ITERATIONS:      12

 -----------------------------------------------------------------------------------

   CUMULATIVE VOLUMES               L**3   RATES FOR THIS TIME STEP           L**3/T
   ------------------                      ------------------------

                                     IN                                         IN
                                     --                                         --
        PRECIPITATION =        1.5195D+07          PRECIPITATION =                  
           STREAMFLOW =                               STREAMFLOW =                  
     GW BOUNDARY FLOW =                         GW BOUNDARY FLOW =                  
                WELLS =           3887.18                  WELLS =             12.46


                                    OUT                                        OUT
                                    ---                                        ---
   EVAPOTRANSPIRATION =        9881038.60     EVAPOTRANSPIRATION =          53532.01
           STREAMFLOW =        6541444.04             STREAMFLOW =          11332.80
     GW BOUNDARY FLOW =         157684.00       GW BOUNDARY FLOW =            724.43
                WELLS =         270030.60                  WELLS =            778.41

   INFLOWS - OUTFLOWS =       -1651690.91     INFLOWS - OUTFLOWS =         -66355.19
             --------                                   --------

 TOTAL STORAGE CHANGE =       -1648789.67         STORAGE CHANGE =         -66350.93
       --------------                             --------------
         LAND SURFACE =         302362.50           LAND SURFACE =          -6705.26
            SOIL ZONE =        1397995.84              SOIL ZONE =         -41942.01
     UNSATURATED ZONE =       -1663742.30       UNSATURATED ZONE =          -6281.34
       SATURATED ZONE =       -1685405.71         SATURATED ZONE =         -11422.32

 OVERALL BUDGET ERROR =          -2901.25           BUDGET ERROR =             -4.26


  PERCENT DISCREPANCY =             -0.02    PERCENT DISCREPANCY =             -0.01



1
 SUMMARY VOLUMETRIC BUDGET FOR GSFLOW 
 DATE: 05 12 1981              CUMULATIVE TIME STEP:     224
 MODFLOW STRESS PERIOD      2     CURRENT TIME STEP:     224     ITERATIONS:      12

 -----------------------------------------------------------------------------------

   CUMULATIVE VOLUMES               L**3   RATES FOR THIS TIME STEP           L**3/T
   ------------------                      ------------------------

                                     IN                                         IN
                                     --                                         --
        PRECIPITATION =        1.5195D+07          PRECIPITATION =                  
           STREAMFLOW =                               STREAMFLOW =                  
     GW BOUNDARY FLOW =                         GW BOUNDARY FLOW =                  
                WELLS =           3976.47                  WELLS =             12.42


                                    OUT                                        OUT
                                    ---                                        ---
   EVAPOTRANSPIRATION =        1.0400D+07     EVAPOTRANSPIRATION =          90345.34
           STREAMFLOW =        6613173.86             STREAMFLOW =          10553.39
     GW BOUNDARY FLOW =         162749.33       GW BOUNDARY FLOW =            723.35
                WELLS =         275431.51                  WELLS =            766.20

   INFLOWS - OUTFLOWS =       -2253233.52     INFLOWS - OUTFLOWS =        -102375.85
             --------                                   --------

 TOTAL STORAGE CHANGE =       -2250302.02         STORAGE CHANGE =        -102371.53
       --------------                             --------------
         LAND SURFACE =         173455.74           LAND SURFACE =         -24893.99
            SOIL ZONE =        1050438.33              SOIL ZONE =         -59650.73
     UNSATURATED ZONE =       -1709186.76       UNSATURATED ZONE =          -6295.28
       SATURATED ZONE =       -1765009.34         SATURATED ZONE =         -11531.54

 OVERALL BUDGET ERROR =          -2931.50           BUDGET ERROR =             -4.32


  PERCENT DISCREPANCY =             -0.02    PERCENT DISCREPANCY =             -0.00



1
 SUMMARY VOLUMETRIC BUDGET FOR GSFLOW 
 DATE: 05 19 1981              CUMULATIVE TIME STEP:     231
 MODFLOW STRESS PERIOD      2     CURRENT TIME STEP:     231     ITERATIONS:      12

 -----------------------------------------------------------------------------------

   CUMULATIVE VOLUMES               L**3   RATES FOR THIS TIME STEP           L**3/T
   ------------------                      ------------------------

                                     IN                                         IN
                                     --                                         --
        PRECIPITATION =        1.6217D+07          PRECIPITATION =         339612.76
           STREAMFLOW =                               STREAMFLOW =                  
     GW BOUNDARY FLOW =                         GW BOUNDARY FLOW =                  
                WELLS =           4076.23                  WELLS =             15.46


                                    OUT                                        OUT
                                    ---                                        ---
   EVAPOTRANSPIRATION =        1.0745D+07     EVAPOTRANSPIRATION =          28295.88
           STREAMFLOW =        6702355.87             STREAMFLOW =          16177.72
     GW BOUNDARY FLOW =         167812.73       GW BOUNDARY FLOW =            723.79
                WELLS =         279321.27                  WELLS =            399.54

   INFLOWS - OUTFLOWS =       -1674140.83     INFLOWS - OUTFLOWS =         294031.29
             --------                                   --------

 TOTAL STORAGE CHANGE =       -1671178.62         STORAGE CHANGE =         294035.46
       --------------                             --------------
         LAND SURFACE =         345387.90           LAND SURFACE =         162072.28
            SOIL ZONE =        1578177.00              SOIL ZONE =         148349.09
     UNSATURATED ZONE =       -1749705.25       UNSATURATED ZONE =          -4931.38
       SATURATED ZONE =       -1845038.27         SATURATED ZONE =         -11454.52

 OVERALL BUDGET ERROR =          -2962.21           BUDGET ERROR =             -4.17


  PERCENT DISCREPANCY =             -0.02    PERCENT DISCREPANCY =             -0.00



1
 SUMMARY VOLUMETRIC BUDGET FOR GSFLOW 
 DATE: 05 26 1981              CUMULATIVE TIME STEP:     238
 MODFLOW STRESS PERIOD      2     CURRENT TIME STEP:     238     ITERATIONS:      12

 -----------------------------------------------------------------------------------

   CUMULATIVE VOLUMES               L**3   RATES FOR THIS TIME STEP           L**3/T
   ------------------                      ------------------------

                                     IN                                         IN
                                     --                                         --
        PRECIPITATION =        1.6608D+07          PRECIPITATION =         171546.23
           STREAMFLOW =                               STREAMFLOW =                  
     GW BOUNDARY FLOW =                         GW BOUNDARY FLOW =                  
                WELLS =           4153.85                  WELLS =              5.98


                                    OUT                                        OUT
                                    ---                                        ---
   EVAPOTRANSPIRATION =        1.1437D+07     EVAPOTRANSPIRATION =         109565.54
           STREAMFLOW =        6804179.41             STREAMFLOW =          17240.28
     GW BOUNDARY FLOW =         172877.73       GW BOUNDARY FLOW =            723.65
                WELLS =         283567.97                  WELLS =            920.21

   INFLOWS - OUTFLOWS =       -2085799.11     INFLOWS - OUTFLOWS =          43102.54
             --------                                   --------

 TOTAL STORAGE CHANGE =       -2082808.20         STORAGE CHANGE =          43106.64
       --------------                             --------------
         LAND SURFACE =         119128.67           LAND SURFACE =          -6048.51
            SOIL ZONE =        1507502.93              SOIL ZONE =          65606.16
     UNSATURATED ZONE =       -1781386.59       UNSATURATED ZONE =          -4367.30
       SATURATED ZONE =       -1928053.21         SATURATED ZONE =         -12083.70

 OVERALL BUDGET ERROR =          -2990.92           BUDGET ERROR =             -4.11


  PERCENT DISCREPANCY =             -0.02    PERCENT DISCREPANCY =             -0.00



1
 SUMMARY VOLUMETRIC BUDGET FOR GSFLOW 
 DATE: 06 02 1981              CUMULATIVE TIME STEP:     245
 MODFLOW STRESS PERIOD      2     CURRENT TIME STEP:     245     ITERATIONS:      12

 -----------------------------------------------------------------------------------

   CUMULATIVE VOLUMES               L**3   RATES FOR THIS TIME STEP           L**3/T
   ------------------                      ------------------------

                                     IN                                         IN
                                     --                                         --
        PRECIPITATION =        1.6690D+07          PRECIPITATION =                  
           STREAMFLOW =                               STREAMFLOW =                  
     GW BOUNDARY FLOW =                         GW BOUNDARY FLOW =                  
                WELLS =           4188.19                  WELLS =              4.16


                                    OUT                                        OUT
                                    ---                                        ---
   EVAPOTRANSPIRATION =        1.2205D+07     EVAPOTRANSPIRATION =          68243.68
           STREAMFLOW =        6880116.51             STREAMFLOW =           7074.77
     GW BOUNDARY FLOW =         177938.96       GW BOUNDARY FLOW =            722.34
                WELLS =         289894.72                  WELLS =            893.00

   INFLOWS - OUTFLOWS =       -2859205.82     INFLOWS - OUTFLOWS =         -76929.64
             --------                                   --------

 TOTAL STORAGE CHANGE =       -2856186.45         STORAGE CHANGE =         -76925.31
       --------------                             --------------
         LAND SURFACE =          30075.22           LAND SURFACE =          -3869.27
            SOIL ZONE =         947876.01              SOIL ZONE =         -53935.57
     UNSATURATED ZONE =       -1816588.17       UNSATURATED ZONE =          -6001.22
       SATURATED ZONE =       -2017549.51         SATURATED ZONE =         -13119.24

 OVERALL BUDGET ERROR =          -3019.37           BUDGET ERROR =             -4.33


  PERCENT DISCREPANCY =             -0.02    PERCENT DISCREPANCY =             -0.01



1
 SUMMARY VOLUMETRIC BUDGET FOR GSFLOW 
 DATE: 06 09 1981              CUMULATIVE TIME STEP:     252
 MODFLOW STRESS PERIOD      2     CURRENT TIME STEP:     252     ITERATIONS:      12

 -----------------------------------------------------------------------------------

   CUMULATIVE VOLUMES               L**3   RATES FOR THIS TIME STEP           L**3/T
   ------------------                      ------------------------

                                     IN                                         IN
                                     --                                         --
        PRECIPITATION =        1.6690D+07          PRECIPITATION =                  
           STREAMFLOW =                               STREAMFLOW =                  
     GW BOUNDARY FLOW =                         GW BOUNDARY FLOW =                  
[...]
   ------------------                      ------------------------

                                     IN                                         IN
                                     --                                         --
        PRECIPITATION =        1.0968D+08          PRECIPITATION =                  
           STREAMFLOW =                               STREAMFLOW =                  
     GW BOUNDARY FLOW =                         GW BOUNDARY FLOW =                  
                WELLS =          20110.73                  WELLS =             21.83


                                    OUT                                        OUT
                                    ---                                        ---
   EVAPOTRANSPIRATION =        4.9314D+07     EVAPOTRANSPIRATION =         225209.21
           STREAMFLOW =        5.8151D+07             STREAMFLOW =         155190.17
     GW BOUNDARY FLOW =         730400.33       GW BOUNDARY FLOW =            730.87
                WELLS =         910710.43                  WELLS =            498.56

   INFLOWS - OUTFLOWS =         597905.61     INFLOWS - OUTFLOWS =        -381606.99
             --------                                   --------

 TOTAL STORAGE CHANGE =         601823.99         STORAGE CHANGE =        -381607.07
       --------------                             --------------
         LAND SURFACE =        7133819.85           LAND SURFACE =        -345377.14
            SOIL ZONE =        2913189.42              SOIL ZONE =         -46022.02
     UNSATURATED ZONE =         645290.93       UNSATURATED ZONE =          14055.20
       SATURATED ZONE =       -1.0090D+07         SATURATED ZONE =          -4263.11

 OVERALL BUDGET ERROR =          -3918.37           BUDGET ERROR =              0.08


  PERCENT DISCREPANCY =             -0.00    PERCENT DISCREPANCY =              0.00



1
 SUMMARY VOLUMETRIC BUDGET FOR GSFLOW 
 DATE: 07 12 1983              CUMULATIVE TIME STEP:    1015
 MODFLOW STRESS PERIOD      2     CURRENT TIME STEP:    1015     ITERATIONS:      10

 -----------------------------------------------------------------------------------

   CUMULATIVE VOLUMES               L**3   RATES FOR THIS TIME STEP           L**3/T
   ------------------                      ------------------------

                                     IN                                         IN
                                     --                                         --
        PRECIPITATION =        1.0968D+08          PRECIPITATION =                  
           STREAMFLOW =                               STREAMFLOW =                  
     GW BOUNDARY FLOW =                         GW BOUNDARY FLOW =                  
                WELLS =          20206.69                  WELLS =             13.59


                                    OUT                                        OUT
                                    ---                                        ---
   EVAPOTRANSPIRATION =        5.0400D+07     EVAPOTRANSPIRATION =         210349.47
           STREAMFLOW =        5.8858D+07             STREAMFLOW =          98553.08
     GW BOUNDARY FLOW =         735497.32       GW BOUNDARY FLOW =            726.91
                WELLS =         914372.34                  WELLS =            445.78

   INFLOWS - OUTFLOWS =       -1203810.93     INFLOWS - OUTFLOWS =        -310061.65
             --------                                   --------

 TOTAL STORAGE CHANGE =       -1199900.40         STORAGE CHANGE =        -310062.99
       --------------                             --------------
         LAND SURFACE =        5632274.48           LAND SURFACE =        -257638.86
            SOIL ZONE =        2585885.85              SOIL ZONE =         -55771.97
     UNSATURATED ZONE =         711201.36       UNSATURATED ZONE =           8423.91
       SATURATED ZONE =       -1.0129D+07         SATURATED ZONE =          -5076.06

 OVERALL BUDGET ERROR =          -3910.54           BUDGET ERROR =              1.34


  PERCENT DISCREPANCY =             -0.00    PERCENT DISCREPANCY =              0.00



1
 SUMMARY VOLUMETRIC BUDGET FOR GSFLOW 
 DATE: 07 19 1983              CUMULATIVE TIME STEP:    1022
 MODFLOW STRESS PERIOD      2     CURRENT TIME STEP:    1022     ITERATIONS:      10

 -----------------------------------------------------------------------------------

   CUMULATIVE VOLUMES               L**3   RATES FOR THIS TIME STEP           L**3/T
   ------------------                      ------------------------

                                     IN                                         IN
                                     --                                         --
        PRECIPITATION =        1.0968D+08          PRECIPITATION =                  
           STREAMFLOW =                               STREAMFLOW =                  
     GW BOUNDARY FLOW =                         GW BOUNDARY FLOW =                  
                WELLS =          20293.73                  WELLS =             11.51


                                    OUT                                        OUT
                                    ---                                        ---
   EVAPOTRANSPIRATION =        5.1500D+07     EVAPOTRANSPIRATION =         127872.25
           STREAMFLOW =        5.9336D+07             STREAMFLOW =          52794.72
     GW BOUNDARY FLOW =         740574.20       GW BOUNDARY FLOW =            723.80
                WELLS =         918299.46                  WELLS =            858.00

   INFLOWS - OUTFLOWS =       -2790685.51     INFLOWS - OUTFLOWS =        -182237.26
             --------                                   --------

 TOTAL STORAGE CHANGE =       -2786779.30         STORAGE CHANGE =        -182237.73
       --------------                             --------------
         LAND SURFACE =        4414955.82           LAND SURFACE =        -131239.31
            SOIL ZONE =        2227471.94              SOIL ZONE =         -47374.28
     UNSATURATED ZONE =         743420.53       UNSATURATED ZONE =           2914.59
       SATURATED ZONE =       -1.0173D+07         SATURATED ZONE =          -6538.74

 OVERALL BUDGET ERROR =          -3906.21           BUDGET ERROR =              0.47


  PERCENT DISCREPANCY =             -0.00    PERCENT DISCREPANCY =              0.00



1
 SUMMARY VOLUMETRIC BUDGET FOR GSFLOW 
 DATE: 07 26 1983              CUMULATIVE TIME STEP:    1029
 MODFLOW STRESS PERIOD      2     CURRENT TIME STEP:    1029     ITERATIONS:      10

 -----------------------------------------------------------------------------------

   CUMULATIVE VOLUMES               L**3   RATES FOR THIS TIME STEP           L**3/T
   ------------------                      ------------------------

                                     IN                                         IN
                                     --                                         --
        PRECIPITATION =        1.0968D+08          PRECIPITATION =                  
           STREAMFLOW =                               STREAMFLOW =                  
     GW BOUNDARY FLOW =                         GW BOUNDARY FLOW =                  
                WELLS =          20357.55                  WELLS =              4.49


                                    OUT                                        OUT
                                    ---                                        ---
   EVAPOTRANSPIRATION =        5.2518D+07     EVAPOTRANSPIRATION =         126622.64
           STREAMFLOW =        5.9654D+07             STREAMFLOW =          36484.68
     GW BOUNDARY FLOW =         745633.61       GW BOUNDARY FLOW =            721.92
                WELLS =         924140.41                  WELLS =            821.08

   INFLOWS - OUTFLOWS =       -4138076.26     INFLOWS - OUTFLOWS =        -164645.82
             --------                                   --------

 TOTAL STORAGE CHANGE =       -4134170.12         STORAGE CHANGE =        -164645.88
       --------------                             --------------
         LAND SURFACE =        3468993.35           LAND SURFACE =        -113204.04
            SOIL ZONE =        1859581.45              SOIL ZONE =         -44921.49
     UNSATURATED ZONE =         755171.05       UNSATURATED ZONE =             93.44
       SATURATED ZONE =       -1.0218D+07         SATURATED ZONE =          -6613.78

 OVERALL BUDGET ERROR =          -3906.13           BUDGET ERROR =              0.06


  PERCENT DISCREPANCY =             -0.00    PERCENT DISCREPANCY =              0.00



1
 SUMMARY VOLUMETRIC BUDGET FOR GSFLOW 
 DATE: 08 02 1983              CUMULATIVE TIME STEP:    1036
 MODFLOW STRESS PERIOD      2     CURRENT TIME STEP:    1036     ITERATIONS:      10

 -----------------------------------------------------------------------------------

   CUMULATIVE VOLUMES               L**3   RATES FOR THIS TIME STEP           L**3/T
   ------------------                      ------------------------

                                     IN                                         IN
                                     --                                         --
        PRECIPITATION =        1.0968D+08          PRECIPITATION =                  
           STREAMFLOW =                               STREAMFLOW =                  
     GW BOUNDARY FLOW =                         GW BOUNDARY FLOW =                  
                WELLS =          20521.29                  WELLS =             24.41


                                    OUT                                        OUT
                                    ---                                        ---
   EVAPOTRANSPIRATION =        5.3542D+07     EVAPOTRANSPIRATION =         145146.36
           STREAMFLOW =        5.9880D+07             STREAMFLOW =          27078.87
     GW BOUNDARY FLOW =         750681.18       GW BOUNDARY FLOW =            720.48
                WELLS =         933365.88                  WELLS =           1299.21

   INFLOWS - OUTFLOWS =       -5401316.58     INFLOWS - OUTFLOWS =        -174220.51
             --------                                   --------

 TOTAL STORAGE CHANGE =       -5397408.50         STORAGE CHANGE =        -174219.94
       --------------                             --------------
         LAND SURFACE =        2621921.82           LAND SURFACE =        -111286.39
            SOIL ZONE =        1500745.30              SOIL ZONE =         -53501.03
     UNSATURATED ZONE =         747232.16       UNSATURATED ZONE =          -2180.30
       SATURATED ZONE =       -1.0267D+07         SATURATED ZONE =          -7252.21

 OVERALL BUDGET ERROR =          -3908.08           BUDGET ERROR =             -0.58


  PERCENT DISCREPANCY =             -0.00    PERCENT DISCREPANCY =             -0.00



1
 SUMMARY VOLUMETRIC BUDGET FOR GSFLOW 
 DATE: 08 09 1983              CUMULATIVE TIME STEP:    1043
 MODFLOW STRESS PERIOD      2     CURRENT TIME STEP:    1043     ITERATIONS:      10

 -----------------------------------------------------------------------------------

   CUMULATIVE VOLUMES               L**3   RATES FOR THIS TIME STEP           L**3/T
   ------------------                      ------------------------

                                     IN                                         IN
                                     --                                         --
        PRECIPITATION =        1.0968D+08          PRECIPITATION =                  
           STREAMFLOW =                               STREAMFLOW =                  
     GW BOUNDARY FLOW =                         GW BOUNDARY FLOW =                  
                WELLS =          20691.79                  WELLS =             24.31


                                    OUT                                        OUT
                                    ---                                        ---
   EVAPOTRANSPIRATION =        5.4489D+07     EVAPOTRANSPIRATION =         122836.33
           STREAMFLOW =        6.0033D+07             STREAMFLOW =          18172.49
     GW BOUNDARY FLOW =         755718.59       GW BOUNDARY FLOW =            719.05
                WELLS =         942340.25                  WELLS =           1270.30

   INFLOWS - OUTFLOWS =       -6514709.14     INFLOWS - OUTFLOWS =        -142973.87
             --------                                   --------

 TOTAL STORAGE CHANGE =       -6510795.74         STORAGE CHANGE =        -142973.03
       --------------                             --------------
         LAND SURFACE =        1926669.43           LAND SURFACE =         -85323.09
            SOIL ZONE =        1159270.96              SOIL ZONE =         -45589.36
     UNSATURATED ZONE =         723483.77       UNSATURATED ZONE =          -4162.34
       SATURATED ZONE =       -1.0320D+07         SATURATED ZONE =          -7898.25

 OVERALL BUDGET ERROR =          -3913.40           BUDGET ERROR =             -0.83


  PERCENT DISCREPANCY =             -0.00    PERCENT DISCREPANCY =             -0.00



1
 SUMMARY VOLUMETRIC BUDGET FOR GSFLOW 
 DATE: 08 16 1983              CUMULATIVE TIME STEP:    1050
 MODFLOW STRESS PERIOD      2     CURRENT TIME STEP:    1050     ITERATIONS:      10

 -----------------------------------------------------------------------------------

   CUMULATIVE VOLUMES               L**3   RATES FOR THIS TIME STEP           L**3/T
   ------------------                      ------------------------

                                     IN                                         IN
                                     --                                         --
        PRECIPITATION =        1.1059D+08          PRECIPITATION =         212546.16
           STREAMFLOW =                               STREAMFLOW =                  
     GW BOUNDARY FLOW =                         GW BOUNDARY FLOW =                  
                WELLS =          20872.40                  WELLS =             29.17


                                    OUT                                        OUT
                                    ---                                        ---
   EVAPOTRANSPIRATION =        5.5336D+07     EVAPOTRANSPIRATION =         125694.75
           STREAMFLOW =        6.0218D+07             STREAMFLOW =          35041.31
     GW BOUNDARY FLOW =         760754.35       GW BOUNDARY FLOW =            719.88
                WELLS =         949673.13                  WELLS =            515.43

   INFLOWS - OUTFLOWS =       -6654654.57     INFLOWS - OUTFLOWS =          50603.95
             --------                                   --------

 TOTAL STORAGE CHANGE =       -6650733.49         STORAGE CHANGE =          50605.15
       --------------                             --------------
         LAND SURFACE =        1502224.41           LAND SURFACE =         -53460.00
            SOIL ZONE =        1515788.57              SOIL ZONE =         112221.30
     UNSATURATED ZONE =         702164.14       UNSATURATED ZONE =          -1734.26
       SATURATED ZONE =       -1.0371D+07         SATURATED ZONE =          -6421.89

 OVERALL BUDGET ERROR =          -3921.07           BUDGET ERROR =             -1.19


  PERCENT DISCREPANCY =             -0.00    PERCENT DISCREPANCY =             -0.00



1
 SUMMARY VOLUMETRIC BUDGET FOR GSFLOW 
 DATE: 08 23 1983              CUMULATIVE TIME STEP:    1057
 MODFLOW STRESS PERIOD      2     CURRENT TIME STEP:    1057     ITERATIONS:       9

 -----------------------------------------------------------------------------------

   CUMULATIVE VOLUMES               L**3   RATES FOR THIS TIME STEP           L**3/T
   ------------------                      ------------------------

                                     IN                                         IN
                                     --                                         --
        PRECIPITATION =        1.1097D+08          PRECIPITATION =                  
           STREAMFLOW =                               STREAMFLOW =                  
     GW BOUNDARY FLOW =                         GW BOUNDARY FLOW =                  
                WELLS =          21085.86                  WELLS =             29.89


                                    OUT                                        OUT
                                    ---                                        ---
   EVAPOTRANSPIRATION =        5.6024D+07     EVAPOTRANSPIRATION =          71821.72
           STREAMFLOW =        6.0362D+07             STREAMFLOW =          15384.65
     GW BOUNDARY FLOW =         765787.72       GW BOUNDARY FLOW =            718.49
                WELLS =         953273.66                  WELLS =            511.85

   INFLOWS - OUTFLOWS =       -7111687.12     INFLOWS - OUTFLOWS =         -88406.82
             --------                                   --------

 TOTAL STORAGE CHANGE =       -7107759.12         STORAGE CHANGE =         -88405.98
       --------------                             --------------
         LAND SURFACE =        1216683.95           LAND SURFACE =         -51235.60
            SOIL ZONE =        1416633.32              SOIL ZONE =         -25900.34
     UNSATURATED ZONE =         681949.34       UNSATURATED ZONE =          -3558.26
       SATURATED ZONE =       -1.0423D+07         SATURATED ZONE =          -7711.77

 OVERALL BUDGET ERROR =          -3927.99           BUDGET ERROR =             -0.84


  PERCENT DISCREPANCY =             -0.00    PERCENT DISCREPANCY =             -0.00



1
 SUMMARY VOLUMETRIC BUDGET FOR GSFLOW 
 DATE: 08 30 1983              CUMULATIVE TIME STEP:    1064
 MODFLOW STRESS PERIOD      2     CURRENT TIME STEP:    1064     ITERATIONS:       9

 -----------------------------------------------------------------------------------

   CUMULATIVE VOLUMES               L**3   RATES FOR THIS TIME STEP           L**3/T
   ------------------                      ------------------------

                                     IN                                         IN
                                     --                                         --
        PRECIPITATION =        1.1097D+08          PRECIPITATION =                  
           STREAMFLOW =                               STREAMFLOW =                  
     GW BOUNDARY FLOW =                         GW BOUNDARY FLOW =                  
                WELLS =          21289.19                  WELLS =             28.43


                                    OUT                                        OUT
                                    ---                                        ---
   EVAPOTRANSPIRATION =        5.6565D+07     EVAPOTRANSPIRATION =          78473.25
           STREAMFLOW =        6.0446D+07             STREAMFLOW =           9541.32
     GW BOUNDARY FLOW =         770811.15       GW BOUNDARY FLOW =            717.07
                WELLS =         956835.05                  WELLS =            506.60

   INFLOWS - OUTFLOWS =       -7744078.52     INFLOWS - OUTFLOWS =         -89209.82
             --------                                   --------

 TOTAL STORAGE CHANGE =       -7740142.79         STORAGE CHANGE =         -89208.36
       --------------                             --------------
         LAND SURFACE =        1023875.08           LAND SURFACE =         -29930.42
            SOIL ZONE =        1062463.63              SOIL ZONE =         -46107.16
     UNSATURATED ZONE =         651586.64       UNSATURATED ZONE =          -5026.78
       SATURATED ZONE =       -1.0478D+07         SATURATED ZONE =          -8144.00

 OVERALL BUDGET ERROR =          -3935.73           BUDGET ERROR =             -1.46


  PERCENT DISCREPANCY =             -0.00    PERCENT DISCREPANCY =             -0.00



