1
 SUMMARY VOLUMETRIC BUDGET FOR GSFLOW 
 DATE: 10 21 1983              CUMULATIVE TIME STEP:    1115
 MODFLOW STRESS PERIOD      2     CURRENT TIME STEP:       1     ITERATIONS:       8

 -----------------------------------------------------------------------------------

   CUMULATIVE VOLUMES               L**3   RATES FOR THIS TIME STEP           L**3/T
   ------------------                      ------------------------

                                     IN                                         IN
                                     --                                         --
        PRECIPITATION =                            PRECIPITATION =                  
           STREAMFLOW =                               STREAMFLOW =                  
     GW BOUNDARY FLOW =                         GW BOUNDARY FLOW =                  
                WELLS =             22.51                  WELLS =             22.51


                                    OUT                                        OUT
                                    ---                                        ---
   EVAPOTRANSPIRATION =          34400.78     EVAPOTRANSPIRATION =          34400.78
           STREAMFLOW =           4003.43             STREAMFLOW =           4003.43
     GW BOUNDARY FLOW =            717.26       GW BOUNDARY FLOW =            717.26
                WELLS =            891.11                  WELLS =            891.11

   INFLOWS - OUTFLOWS =         -39990.07     INFLOWS - OUTFLOWS =         -39990.07
             --------                                   --------

 TOTAL STORAGE CHANGE =         -39987.29         STORAGE CHANGE =         -39987.29
       --------------                             --------------
         LAND SURFACE =          -5082.01           LAND SURFACE =          -5082.01
            SOIL ZONE =         -19603.87              SOIL ZONE =         -19603.87
     UNSATURATED ZONE =          -5999.37       UNSATURATED ZONE =          -5999.37
       SATURATED ZONE =          -9302.04         SATURATED ZONE =          -9302.04

 OVERALL BUDGET ERROR =             -2.78           BUDGET ERROR =             -2.78


  PERCENT DISCREPANCY =             -0.01    PERCENT DISCREPANCY =             -0.01



1
 SUMMARY VOLUMETRIC BUDGET FOR GSFLOW 
 DATE: 10 22 1983              CUMULATIVE TIME STEP:    1116
 MODFLOW STRESS PERIOD      2     CURRENT TIME STEP:       2     ITERATIONS:       8

 -----------------------------------------------------------------------------------

   CUMULATIVE VOLUMES               L**3   RATES FOR THIS TIME STEP           L**3/T
   ------------------                      ------------------------

                                     IN                                         IN
                                     --                                         --
        PRECIPITATION =                            PRECIPITATION =                  
           STREAMFLOW =                               STREAMFLOW =                  
     GW BOUNDARY FLOW =                         GW BOUNDARY FLOW =                  
                WELLS =             45.72                  WELLS =             23.21


                                    OUT                                        OUT
                                    ---                                        ---
   EVAPOTRANSPIRATION =          63592.51     EVAPOTRANSPIRATION =          29191.73
           STREAMFLOW =           7927.41             STREAMFLOW =           3923.98
     GW BOUNDARY FLOW =           1434.52       GW BOUNDARY FLOW =            717.25
                WELLS =           1780.57                  WELLS =            889.46

   INFLOWS - OUTFLOWS =         -74689.29     INFLOWS - OUTFLOWS =         -34699.22
             --------                                   --------

 TOTAL STORAGE CHANGE =         -74683.71         STORAGE CHANGE =         -34696.42
       --------------                             --------------
         LAND SURFACE =          -6580.68           LAND SURFACE =          -1498.67
            SOIL ZONE =         -37495.44              SOIL ZONE =         -17891.57
     UNSATURATED ZONE =         -11957.69       UNSATURATED ZONE =          -5958.33
       SATURATED ZONE =         -18649.89         SATURATED ZONE =          -9347.85

 OVERALL BUDGET ERROR =             -5.58           BUDGET ERROR =             -2.81


  PERCENT DISCREPANCY =             -0.01    PERCENT DISCREPANCY =             -0.01



1
 SUMMARY VOLUMETRIC BUDGET FOR GSFLOW 
 DATE: 10 23 1983              CUMULATIVE TIME STEP:    1117
 MODFLOW STRESS PERIOD      2     CURRENT TIME STEP:       3     ITERATIONS:       8

 -----------------------------------------------------------------------------------

   CUMULATIVE VOLUMES               L**3   RATES FOR THIS TIME STEP           L**3/T
   ------------------                      ------------------------

                                     IN                                         IN
                                     --                                         --
        PRECIPITATION =         164880.37          PRECIPITATION =         164880.37
           STREAMFLOW =                               STREAMFLOW =                  
     GW BOUNDARY FLOW =                         GW BOUNDARY FLOW =                  
                WELLS =             68.92                  WELLS =             23.21


                                    OUT                                        OUT
                                    ---                                        ---
   EVAPOTRANSPIRATION =         107485.64     EVAPOTRANSPIRATION =          43893.13
           STREAMFLOW =          13818.66             STREAMFLOW =           5891.25
     GW BOUNDARY FLOW =           2151.94       GW BOUNDARY FLOW =            717.43
                WELLS =           2667.51                  WELLS =            886.94

   INFLOWS - OUTFLOWS =          38825.54     INFLOWS - OUTFLOWS =         113514.83
             --------                                   --------

 TOTAL STORAGE CHANGE =          38833.80         STORAGE CHANGE =         113517.51
       --------------                             --------------
         LAND SURFACE =           8530.96           LAND SURFACE =          15111.65
            SOIL ZONE =          75292.99              SOIL ZONE =         112788.43
     UNSATURATED ZONE =         -17584.44       UNSATURATED ZONE =          -5626.74
       SATURATED ZONE =         -27405.71         SATURATED ZONE =          -8755.82

 OVERALL BUDGET ERROR =             -8.26           BUDGET ERROR =             -2.68


  PERCENT DISCREPANCY =             -0.01    PERCENT DISCREPANCY =             -0.00



1
 SUMMARY VOLUMETRIC BUDGET FOR GSFLOW 
 DATE: 10 24 1983              CUMULATIVE TIME STEP:    1118
 MODFLOW STRESS PERIOD      2     CURRENT TIME STEP:       4     ITERATIONS:       8

 -----------------------------------------------------------------------------------

   CUMULATIVE VOLUMES               L**3   RATES FOR THIS TIME STEP           L**3/T
   ------------------                      ------------------------

                                     IN                                         IN
                                     --                                         --
        PRECIPITATION =         288091.23          PRECIPITATION =         123210.87
           STREAMFLOW =                               STREAMFLOW =                  
     GW BOUNDARY FLOW =                         GW BOUNDARY FLOW =                  
                WELLS =             92.05                  WELLS =             23.12


                                    OUT                                        OUT
                                    ---                                        ---
   EVAPOTRANSPIRATION =         124759.92     EVAPOTRANSPIRATION =          17274.27
           STREAMFLOW =          20020.45             STREAMFLOW =           6201.79
     GW BOUNDARY FLOW =           2869.51       GW BOUNDARY FLOW =            717.56
                WELLS =           3551.86                  WELLS =            884.35

   INFLOWS - OUTFLOWS =         136981.55     INFLOWS - OUTFLOWS =          98156.01
             --------                                   --------

 TOTAL STORAGE CHANGE =         136992.58         STORAGE CHANGE =          98158.78
       --------------                             --------------
         LAND SURFACE =          31808.79           LAND SURFACE =          23277.83
            SOIL ZONE =         164693.50              SOIL ZONE =          89400.51
     UNSATURATED ZONE =         -23067.08       UNSATURATED ZONE =          -5482.64
       SATURATED ZONE =         -36442.63         SATURATED ZONE =          -9036.92

 OVERALL BUDGET ERROR =            -11.04           BUDGET ERROR =             -2.77


  PERCENT DISCREPANCY =             -0.00    PERCENT DISCREPANCY =             -0.00



1
 SUMMARY VOLUMETRIC BUDGET FOR GSFLOW 
 DATE: 10 25 1983              CUMULATIVE TIME STEP:    1119
 MODFLOW STRESS PERIOD      2     CURRENT TIME STEP:       5     ITERATIONS:       8

 -----------------------------------------------------------------------------------

   CUMULATIVE VOLUMES               L**3   RATES FOR THIS TIME STEP           L**3/T
   ------------------                      ------------------------

                                     IN                                         IN
                                     --                                         --
        PRECIPITATION =         288091.23          PRECIPITATION =                  
           STREAMFLOW =                               STREAMFLOW =                  
     GW BOUNDARY FLOW =                         GW BOUNDARY FLOW =                  
                WELLS =            115.07                  WELLS =             23.03


                                    OUT                                        OUT
                                    ---                                        ---
   EVAPOTRANSPIRATION =         197551.69     EVAPOTRANSPIRATION =          72791.77
           STREAMFLOW =          25158.25             STREAMFLOW =           5137.80
     GW BOUNDARY FLOW =           3587.07       GW BOUNDARY FLOW =            717.56
                WELLS =           4433.69                  WELLS =            881.82

   INFLOWS - OUTFLOWS =          57475.62     INFLOWS - OUTFLOWS =         -79505.93
             --------                                   --------

 TOTAL STORAGE CHANGE =          57492.02         STORAGE CHANGE =         -79500.56
       --------------                             --------------
         LAND SURFACE =         -37931.29           LAND SURFACE =         -69740.08
            SOIL ZONE =         169737.27              SOIL ZONE =           5043.77
     UNSATURATED ZONE =         -28559.23       UNSATURATED ZONE =          -5492.16
       SATURATED ZONE =         -45754.73         SATURATED ZONE =          -9312.10

 OVERALL BUDGET ERROR =            -16.40           BUDGET ERROR =             -5.37


  PERCENT DISCREPANCY =             -0.01    PERCENT DISCREPANCY =             -0.01



1
 SUMMARY VOLUMETRIC BUDGET FOR GSFLOW 
 DATE: 10 26 1983              CUMULATIVE TIME STEP:    1120
 MODFLOW STRESS PERIOD      2     CURRENT TIME STEP:       6     ITERATIONS:       9

 -----------------------------------------------------------------------------------

   CUMULATIVE VOLUMES               L**3   RATES FOR THIS TIME STEP           L**3/T
   ------------------                      ------------------------

                                     IN                                         IN
                                     --                                         --
        PRECIPITATION =         288091.23          PRECIPITATION =                  
           STREAMFLOW =                               STREAMFLOW =                  
     GW BOUNDARY FLOW =                         GW BOUNDARY FLOW =                  
                WELLS =            138.00                  WELLS =             22.93


                                    OUT                                        OUT
                                    ---                                        ---
   EVAPOTRANSPIRATION =         240405.57     EVAPOTRANSPIRATION =          42853.89
           STREAMFLOW =          30214.65             STREAMFLOW =           5056.40
     GW BOUNDARY FLOW =           4304.60       GW BOUNDARY FLOW =            717.54
                WELLS =           5313.07                  WELLS =            879.38

   INFLOWS - OUTFLOWS =           7991.34     INFLOWS - OUTFLOWS =         -49484.27
             --------                                   --------

 TOTAL STORAGE CHANGE =           8010.19         STORAGE CHANGE =         -49481.83
       --------------                             --------------
         LAND SURFACE =         -44214.37           LAND SURFACE =          -6283.08
            SOIL ZONE =         141263.24              SOIL ZONE =         -28474.03
     UNSATURATED ZONE =         -33905.16       UNSATURATED ZONE =          -5345.92
       SATURATED ZONE =         -55133.52         SATURATED ZONE =          -9378.79

 OVERALL BUDGET ERROR =            -18.85           BUDGET ERROR =             -2.45


  PERCENT DISCREPANCY =             -0.01    PERCENT DISCREPANCY =             -0.00



1
 SUMMARY VOLUMETRIC BUDGET FOR GSFLOW 
 DATE: 10 27 1983              CUMULATIVE TIME STEP:    1121
 MODFLOW STRESS PERIOD      2     CURRENT TIME STEP:       7     ITERATIONS:       9

 -----------------------------------------------------------------------------------

   CUMULATIVE VOLUMES               L**3   RATES FOR THIS TIME STEP           L**3/T
   ------------------                      ------------------------

                                     IN                                         IN
                                     --                                         --
        PRECIPITATION =         288091.23          PRECIPITATION =                  
           STREAMFLOW =                               STREAMFLOW =                  
     GW BOUNDARY FLOW =                         GW BOUNDARY FLOW =                  
                WELLS =            160.84                  WELLS =             22.83


                                    OUT                                        OUT
                                    ---                                        ---
   EVAPOTRANSPIRATION =         277260.56     EVAPOTRANSPIRATION =          36854.99
           STREAMFLOW =          35003.68             STREAMFLOW =           4789.04
     GW BOUNDARY FLOW =           5022.11       GW BOUNDARY FLOW =            717.51
                WELLS =           6190.10                  WELLS =            877.03

   INFLOWS - OUTFLOWS =         -35224.39     INFLOWS - OUTFLOWS =         -43215.73
             --------                                   --------

 TOTAL STORAGE CHANGE =         -35202.33         STORAGE CHANGE =         -43212.53
       --------------                             --------------
         LAND SURFACE =         -46670.16           LAND SURFACE =          -2455.80
            SOIL ZONE =         115365.62              SOIL ZONE =         -25897.62
     UNSATURATED ZONE =         -39292.87       UNSATURATED ZONE =          -5387.71
       SATURATED ZONE =         -64604.91         SATURATED ZONE =          -9471.39

 OVERALL BUDGET ERROR =            -22.05           BUDGET ERROR =             -3.20


  PERCENT DISCREPANCY =             -0.01    PERCENT DISCREPANCY =             -0.01



 Number of time steps:      7;  Number of non-convergence:   0
 MF iterations:            58;  SZ iterations:              58
 Average MF iterations:  8.29;  Average SZ iterations:    8.29
 Maximum MF iterations:     9;  Maximum SZ iterations:       9

MF iteration distribution:      0    0    0    0    0    0    0    5    2    0
                                0    0    0    0    0    0    0    0    0    0
                                0    0    0    0    0    0    0    0    0    0
                                0    0    0    0    0    0    0    0    0    0
                                0    0    0    0    0    0    0    0    0    0
                                0    0    0    0    0    0    0    0    0    0
                                0    0    0    0    0    0    0    0    0    0
                                0    0    0    0    0    0    0    0    0    0

SZ computation distribution:    0    0    0    0    0    0    0    5    2    0
                                0    0    0    0    0    0    0    0    0    0
                                0    0    0    0    0    0    0    0    0    0
                                0    0    0    0    0    0    0    0    0    0
                                0    0    0    0    0    0    0    0    0    0
                                0    0    0    0    0    0    0    0    0    0
                                0    0    0    0    0    0    0    0    0    0
                                0    0    0    0    0    0    0    0    0    0

