1
 SUMMARY VOLUMETRIC BUDGET FOR GSFLOW 
 DATE: 10 07 1983              CUMULATIVE TIME STEP:    1101
 MODFLOW STRESS PERIOD      2     CURRENT TIME STEP:       1     ITERATIONS:      18

 -----------------------------------------------------------------------------------

   CUMULATIVE VOLUMES               L**3   RATES FOR THIS TIME STEP           L**3/T
   ------------------                      ------------------------

                                     IN                                         IN
                                     --                                         --
        PRECIPITATION =                            PRECIPITATION =                  
           STREAMFLOW =                               STREAMFLOW =                  
     GW BOUNDARY FLOW =                         GW BOUNDARY FLOW =                  
                WELLS =             31.19                  WELLS =             31.19


                                    OUT                                        OUT
                                    ---                                        ---
   EVAPOTRANSPIRATION =          80330.59     EVAPOTRANSPIRATION =          80330.59
           STREAMFLOW =           6408.69             STREAMFLOW =           6408.69
     GW BOUNDARY FLOW =            717.71       GW BOUNDARY FLOW =            717.71
                WELLS =           1354.98                  WELLS =           1354.98

   INFLOWS - OUTFLOWS =         -88780.78     INFLOWS - OUTFLOWS =         -88780.78
             --------                                   --------

 TOTAL STORAGE CHANGE =         -88778.90         STORAGE CHANGE =         -88778.90
       --------------                             --------------
         LAND SURFACE =          -7064.38           LAND SURFACE =          -7064.38
            SOIL ZONE =         -67198.07              SOIL ZONE =         -67198.07
     UNSATURATED ZONE =          -4797.86       UNSATURATED ZONE =          -4797.86
       SATURATED ZONE =          -9718.58         SATURATED ZONE =          -9718.58

 OVERALL BUDGET ERROR =             -1.89           BUDGET ERROR =             -1.89


  PERCENT DISCREPANCY =             -0.00    PERCENT DISCREPANCY =             -0.00



1
 SUMMARY VOLUMETRIC BUDGET FOR GSFLOW 
 DATE: 10 08 1983              CUMULATIVE TIME STEP:    1102
 MODFLOW STRESS PERIOD      2     CURRENT TIME STEP:       2     ITERATIONS:      10

 -----------------------------------------------------------------------------------

   CUMULATIVE VOLUMES               L**3   RATES FOR THIS TIME STEP           L**3/T
   ------------------                      ------------------------

                                     IN                                         IN
                                     --                                         --
        PRECIPITATION =                            PRECIPITATION =                  
           STREAMFLOW =                               STREAMFLOW =                  
     GW BOUNDARY FLOW =                         GW BOUNDARY FLOW =                  
                WELLS =             53.74                  WELLS =             22.55


                                    OUT                                        OUT
                                    ---                                        ---
   EVAPOTRANSPIRATION =         138106.37     EVAPOTRANSPIRATION =          57775.78
           STREAMFLOW =          12167.46             STREAMFLOW =           5758.77
     GW BOUNDARY FLOW =           1435.32       GW BOUNDARY FLOW =            717.61
                WELLS =           2682.94                  WELLS =           1327.96

   INFLOWS - OUTFLOWS =        -154338.35     INFLOWS - OUTFLOWS =         -65557.57
             --------                                   --------

 TOTAL STORAGE CHANGE =        -154334.62         STORAGE CHANGE =         -65555.73
       --------------                             --------------
         LAND SURFACE =         -12426.96           LAND SURFACE =          -5362.57
            SOIL ZONE =        -112499.96              SOIL ZONE =         -45301.88
     UNSATURATED ZONE =          -9940.76       UNSATURATED ZONE =          -5142.89
       SATURATED ZONE =         -19466.96         SATURATED ZONE =          -9748.38

 OVERALL BUDGET ERROR =             -3.72           BUDGET ERROR =             -1.84


  PERCENT DISCREPANCY =             -0.00    PERCENT DISCREPANCY =             -0.00



1
 SUMMARY VOLUMETRIC BUDGET FOR GSFLOW 
 DATE: 10 09 1983              CUMULATIVE TIME STEP:    1103
 MODFLOW STRESS PERIOD      2     CURRENT TIME STEP:       3     ITERATIONS:       9

 -----------------------------------------------------------------------------------

   CUMULATIVE VOLUMES               L**3   RATES FOR THIS TIME STEP           L**3/T
   ------------------                      ------------------------

                                     IN                                         IN
                                     --                                         --
        PRECIPITATION =                            PRECIPITATION =                  
           STREAMFLOW =                               STREAMFLOW =                  
     GW BOUNDARY FLOW =                         GW BOUNDARY FLOW =                  
                WELLS =             75.18                  WELLS =             21.44


                                    OUT                                        OUT
                                    ---                                        ---
   EVAPOTRANSPIRATION =         170971.65     EVAPOTRANSPIRATION =          32865.28
           STREAMFLOW =          17546.67             STREAMFLOW =           5379.21
     GW BOUNDARY FLOW =           2152.86       GW BOUNDARY FLOW =            717.54
                WELLS =           4002.84                  WELLS =           1319.90

   INFLOWS - OUTFLOWS =        -194598.84     INFLOWS - OUTFLOWS =         -40260.49
             --------                                   --------

 TOTAL STORAGE CHANGE =        -194593.15         STORAGE CHANGE =         -40258.53
       --------------                             --------------
         LAND SURFACE =         -17504.90           LAND SURFACE =          -5077.95
            SOIL ZONE =        -132557.95              SOIL ZONE =         -20057.99
     UNSATURATED ZONE =         -15292.91       UNSATURATED ZONE =          -5352.16
       SATURATED ZONE =         -29237.39         SATURATED ZONE =          -9770.43

 OVERALL BUDGET ERROR =             -5.68           BUDGET ERROR =             -1.96


  PERCENT DISCREPANCY =             -0.00    PERCENT DISCREPANCY =             -0.00



1
 SUMMARY VOLUMETRIC BUDGET FOR GSFLOW 
 DATE: 10 10 1983              CUMULATIVE TIME STEP:    1104
 MODFLOW STRESS PERIOD      2     CURRENT TIME STEP:       4     ITERATIONS:       9

 -----------------------------------------------------------------------------------

   CUMULATIVE VOLUMES               L**3   RATES FOR THIS TIME STEP           L**3/T
   ------------------                      ------------------------

                                     IN                                         IN
                                     --                                         --
        PRECIPITATION =                            PRECIPITATION =                  
           STREAMFLOW =                               STREAMFLOW =                  
     GW BOUNDARY FLOW =                         GW BOUNDARY FLOW =                  
                WELLS =             96.46                  WELLS =             21.28


                                    OUT                                        OUT
                                    ---                                        ---
   EVAPOTRANSPIRATION =         199615.36     EVAPOTRANSPIRATION =          28643.71
           STREAMFLOW =          22573.92             STREAMFLOW =           5027.25
     GW BOUNDARY FLOW =           2870.33       GW BOUNDARY FLOW =            717.47
                WELLS =           5316.66                  WELLS =           1313.82

   INFLOWS - OUTFLOWS =        -230279.82     INFLOWS - OUTFLOWS =         -35680.98
             --------                                   --------

 TOTAL STORAGE CHANGE =        -230272.08         STORAGE CHANGE =         -35678.93
       --------------                             --------------
         LAND SURFACE =         -18998.17           LAND SURFACE =          -1493.27
            SOIL ZONE =        -151439.00              SOIL ZONE =         -18881.05
     UNSATURATED ZONE =         -20801.83       UNSATURATED ZONE =          -5508.92
       SATURATED ZONE =         -39033.08         SATURATED ZONE =          -9795.69

 OVERALL BUDGET ERROR =             -7.73           BUDGET ERROR =             -2.05


  PERCENT DISCREPANCY =             -0.00    PERCENT DISCREPANCY =             -0.01



1
 SUMMARY VOLUMETRIC BUDGET FOR GSFLOW 
 DATE: 10 11 1983              CUMULATIVE TIME STEP:    1105
 MODFLOW STRESS PERIOD      2     CURRENT TIME STEP:       5     ITERATIONS:       9

 -----------------------------------------------------------------------------------

   CUMULATIVE VOLUMES               L**3   RATES FOR THIS TIME STEP           L**3/T
   ------------------                      ------------------------

                                     IN                                         IN
                                     --                                         --
        PRECIPITATION =                            PRECIPITATION =                  
           STREAMFLOW =                               STREAMFLOW =                  
     GW BOUNDARY FLOW =                         GW BOUNDARY FLOW =                  
                WELLS =            117.73                  WELLS =             21.27


                                    OUT                                        OUT
                                    ---                                        ---
   EVAPOTRANSPIRATION =         246874.98     EVAPOTRANSPIRATION =          47259.62
           STREAMFLOW =          27563.25             STREAMFLOW =           4989.33
     GW BOUNDARY FLOW =           3587.76       GW BOUNDARY FLOW =            717.43
                WELLS =           6624.86                  WELLS =           1308.20

   INFLOWS - OUTFLOWS =        -284533.12     INFLOWS - OUTFLOWS =         -54253.31
             --------                                   --------

 TOTAL STORAGE CHANGE =        -284523.27         STORAGE CHANGE =         -54251.19
       --------------                             --------------
         LAND SURFACE =         -24664.46           LAND SURFACE =          -5666.29
            SOIL ZONE =        -184723.52              SOIL ZONE =         -33284.52
     UNSATURATED ZONE =         -26341.56       UNSATURATED ZONE =          -5539.72
       SATURATED ZONE =         -48793.73         SATURATED ZONE =          -9760.65

 OVERALL BUDGET ERROR =             -9.85           BUDGET ERROR =             -2.12


  PERCENT DISCREPANCY =             -0.00    PERCENT DISCREPANCY =             -0.00



1
 SUMMARY VOLUMETRIC BUDGET FOR GSFLOW 
 DATE: 10 12 1983              CUMULATIVE TIME STEP:    1106
 MODFLOW STRESS PERIOD      2     CURRENT TIME STEP:       6     ITERATIONS:       9

 -----------------------------------------------------------------------------------

   CUMULATIVE VOLUMES               L**3   RATES FOR THIS TIME STEP           L**3/T
   ------------------                      ------------------------

                                     IN                                         IN
                                     --                                         --
        PRECIPITATION =                            PRECIPITATION =                  
           STREAMFLOW =                               STREAMFLOW =                  
     GW BOUNDARY FLOW =                         GW BOUNDARY FLOW =                  
                WELLS =            139.02                  WELLS =             21.29


                                    OUT                                        OUT
                                    ---                                        ---
   EVAPOTRANSPIRATION =         304014.51     EVAPOTRANSPIRATION =          57139.53
           STREAMFLOW =          32422.79             STREAMFLOW =           4859.54
     GW BOUNDARY FLOW =           4305.17       GW BOUNDARY FLOW =            717.41
                WELLS =           7927.71                  WELLS =           1302.84

   INFLOWS - OUTFLOWS =        -348531.16     INFLOWS - OUTFLOWS =         -63998.04
             --------                                   --------

 TOTAL STORAGE CHANGE =        -348519.06         STORAGE CHANGE =         -63995.79
       --------------                             --------------
         LAND SURFACE =         -31379.51           LAND SURFACE =          -6715.05
            SOIL ZONE =        -226630.51              SOIL ZONE =         -41906.99
     UNSATURATED ZONE =         -31994.67       UNSATURATED ZONE =          -5653.11
       SATURATED ZONE =         -58514.38         SATURATED ZONE =          -9720.65

 OVERALL BUDGET ERROR =            -12.09           BUDGET ERROR =             -2.24


  PERCENT DISCREPANCY =             -0.00    PERCENT DISCREPANCY =             -0.00



1
 SUMMARY VOLUMETRIC BUDGET FOR GSFLOW 
 DATE: 10 13 1983              CUMULATIVE TIME STEP:    1107
 MODFLOW STRESS PERIOD      2     CURRENT TIME STEP:       7     ITERATIONS:       9

 -----------------------------------------------------------------------------------

   CUMULATIVE VOLUMES               L**3   RATES FOR THIS TIME STEP           L**3/T
   ------------------                      ------------------------

                                     IN                                         IN
                                     --                                         --
        PRECIPITATION =                            PRECIPITATION =                  
           STREAMFLOW =                               STREAMFLOW =                  
     GW BOUNDARY FLOW =                         GW BOUNDARY FLOW =                  
                WELLS =            160.34                  WELLS =             21.32


                                    OUT                                        OUT
                                    ---                                        ---
   EVAPOTRANSPIRATION =         359567.54     EVAPOTRANSPIRATION =          55553.03
           STREAMFLOW =          37079.36             STREAMFLOW =           4656.57
     GW BOUNDARY FLOW =           5022.55       GW BOUNDARY FLOW =            717.38
                WELLS =           9225.42                  WELLS =           1297.72

   INFLOWS - OUTFLOWS =        -410734.53     INFLOWS - OUTFLOWS =         -62203.37
             --------                                   --------

 TOTAL STORAGE CHANGE =        -410720.01         STORAGE CHANGE =         -62200.94
       --------------                             --------------
         LAND SURFACE =         -37516.99           LAND SURFACE =          -6137.47
            SOIL ZONE =        -267216.64              SOIL ZONE =         -40586.13
     UNSATURATED ZONE =         -37750.16       UNSATURATED ZONE =          -5755.49
       SATURATED ZONE =         -68236.22         SATURATED ZONE =          -9721.84

 OVERALL BUDGET ERROR =            -14.53           BUDGET ERROR =             -2.43


  PERCENT DISCREPANCY =             -0.00    PERCENT DISCREPANCY =             -0.00



 Number of time steps:      7;  Number of non-convergence:   0
 MF iterations:            73;  SZ iterations:              73
 Average MF iterations: 10.43;  Average SZ iterations:   10.43
 Maximum MF iterations:    18;  Maximum SZ iterations:      18

MF iteration distribution:      0    0    0    0    0    0    0    0    5    1
                                0    0    0    0    0    0    0    1    0    0
                                0    0    0    0    0    0    0    0    0    0
                                0    0    0    0    0    0    0    0    0    0
                                0    0    0    0    0    0    0    0    0    0
                                0    0    0    0    0    0    0    0    0    0
                                0    0    0    0    0    0    0    0    0    0
                                0    0    0    0    0    0    0    0    0    0

SZ computation distribution:    0    0    0    0    0    0    0    0    5    1
                                0    0    0    0    0    0    0    1    0    0
                                0    0    0    0    0    0    0    0    0    0
                                0    0    0    0    0    0    0    0    0    0
                                0    0    0    0    0    0    0    0    0    0
                                0    0    0    0    0    0    0    0    0    0
                                0    0    0    0    0    0    0    0    0    0
                                0    0    0    0    0    0    0    0    0    0

