1
 SUMMARY VOLUMETRIC BUDGET FOR GSFLOW 
 DATE: 10 13 1983              CUMULATIVE TIME STEP:    1107
 MODFLOW STRESS PERIOD      2     CURRENT TIME STEP:       7     ITERATIONS:      17

 -----------------------------------------------------------------------------------

   CUMULATIVE VOLUMES               L**3   RATES FOR THIS TIME STEP           L**3/T
   ------------------                      ------------------------

                                     IN                                         IN
                                     --                                         --
        PRECIPITATION =                            PRECIPITATION =                  
           STREAMFLOW =                               STREAMFLOW =                  
     GW BOUNDARY FLOW =                         GW BOUNDARY FLOW =                  
                WELLS =             35.03                  WELLS =             33.08


                                    OUT                                        OUT
                                    ---                                        ---
   EVAPOTRANSPIRATION =         357463.94     EVAPOTRANSPIRATION =          55413.49
           STREAMFLOW =          36445.12             STREAMFLOW =           4600.84
     GW BOUNDARY FLOW =           5022.11       GW BOUNDARY FLOW =            717.32
                WELLS =          11232.97                  WELLS =           1277.15

   INFLOWS - OUTFLOWS =        -410129.10     INFLOWS - OUTFLOWS =         -61975.72
             --------                                   --------

 TOTAL STORAGE CHANGE =        -410114.52         STORAGE CHANGE =         -61973.27
       --------------                             --------------
         LAND SURFACE =         -37517.00           LAND SURFACE =          -6137.48
            SOIL ZONE =        -265223.13              SOIL ZONE =         -40457.51
     UNSATURATED ZONE =         -37662.15       UNSATURATED ZONE =          -5736.06
       SATURATED ZONE =         -69712.24         SATURATED ZONE =          -9642.21

 OVERALL BUDGET ERROR =            -14.59           BUDGET ERROR =             -2.45


  PERCENT DISCREPANCY =             -0.00    PERCENT DISCREPANCY =             -0.00



