1
 SUMMARY VOLUMETRIC BUDGET FOR GSFLOW 
 DATE: 09 08 1983              CUMULATIVE TIME STEP:    1072
 MODFLOW STRESS PERIOD      2     CURRENT TIME STEP:       7     ITERATIONS:      10

 -----------------------------------------------------------------------------------

   CUMULATIVE VOLUMES               L**3   RATES FOR THIS TIME STEP           L**3/T
   ------------------                      ------------------------

                                     IN                                         IN
                                     --                                         --
        PRECIPITATION =                            PRECIPITATION =                  
           STREAMFLOW =                               STREAMFLOW =                  
     GW BOUNDARY FLOW =                         GW BOUNDARY FLOW =                  
                WELLS =            202.69                  WELLS =             28.23


                                    OUT                                        OUT
                                    ---                                        ---
   EVAPOTRANSPIRATION =         495220.89     EVAPOTRANSPIRATION =          66620.56
           STREAMFLOW =          66485.01             STREAMFLOW =           8355.64
     GW BOUNDARY FLOW =           5017.79       GW BOUNDARY FLOW =            716.55
                WELLS =           3530.64                  WELLS =            502.54

   INFLOWS - OUTFLOWS =        -570051.65     INFLOWS - OUTFLOWS =         -76167.06
             --------                                   --------

 TOTAL STORAGE CHANGE =        -570040.54         STORAGE CHANGE =         -76165.19
       --------------                             --------------
         LAND SURFACE =        -194606.90           LAND SURFACE =         -24708.45
            SOIL ZONE =        -283669.88              SOIL ZONE =         -37950.35
     UNSATURATED ZONE =         -35287.70       UNSATURATED ZONE =          -5338.44
       SATURATED ZONE =         -56476.06         SATURATED ZONE =          -8167.94

 OVERALL BUDGET ERROR =            -11.12           BUDGET ERROR =             -1.88


  PERCENT DISCREPANCY =             -0.00    PERCENT DISCREPANCY =             -0.00



