1
 SUMMARY VOLUMETRIC BUDGET FOR GSFLOW 
 DATE: 11 04 1983              CUMULATIVE TIME STEP:    1129
 MODFLOW STRESS PERIOD      2     CURRENT TIME STEP:       1     ITERATIONS:       9

 -----------------------------------------------------------------------------------

   CUMULATIVE VOLUMES               L**3   RATES FOR THIS TIME STEP           L**3/T
   ------------------                      ------------------------

                                     IN                                         IN
                                     --                                         --
        PRECIPITATION =                            PRECIPITATION =                  
           STREAMFLOW =                               STREAMFLOW =                  
     GW BOUNDARY FLOW =                         GW BOUNDARY FLOW =                  
                WELLS =             27.33                  WELLS =             27.33


                                    OUT                                        OUT
                                    ---                                        ---
   EVAPOTRANSPIRATION =          54982.58     EVAPOTRANSPIRATION =          54982.58
           STREAMFLOW =          29010.06             STREAMFLOW =          29010.06
     GW BOUNDARY FLOW =            720.13       GW BOUNDARY FLOW =            720.13
                WELLS =            507.64                  WELLS =            507.64

   INFLOWS - OUTFLOWS =         -85193.08     INFLOWS - OUTFLOWS =         -85193.08
             --------                                   --------

 TOTAL STORAGE CHANGE =         -85190.53         STORAGE CHANGE =         -85190.53
       --------------                             --------------
         LAND SURFACE =        -244596.42           LAND SURFACE =        -244596.42
            SOIL ZONE =         169476.63              SOIL ZONE =         169476.63
     UNSATURATED ZONE =          -2566.52       UNSATURATED ZONE =          -2566.52
       SATURATED ZONE =          -7504.21         SATURATED ZONE =          -7504.21

 OVERALL BUDGET ERROR =             -2.55           BUDGET ERROR =             -2.55


  PERCENT DISCREPANCY =             -0.00    PERCENT DISCREPANCY =             -0.00



1
 SUMMARY VOLUMETRIC BUDGET FOR GSFLOW 
 DATE: 11 05 1983              CUMULATIVE TIME STEP:    1130
 MODFLOW STRESS PERIOD      2     CURRENT TIME STEP:       2     ITERATIONS:       9

 -----------------------------------------------------------------------------------

   CUMULATIVE VOLUMES               L**3   RATES FOR THIS TIME STEP           L**3/T
   ------------------                      ------------------------

                                     IN                                         IN
                                     --                                         --
        PRECIPITATION =                            PRECIPITATION =                  
           STREAMFLOW =                               STREAMFLOW =                  
     GW BOUNDARY FLOW =                         GW BOUNDARY FLOW =                  
                WELLS =             54.48                  WELLS =             27.15


                                    OUT                                        OUT
                                    ---                                        ---
   EVAPOTRANSPIRATION =          96412.81     EVAPOTRANSPIRATION =          41430.24
           STREAMFLOW =          57580.62             STREAMFLOW =          28570.55
     GW BOUNDARY FLOW =           1440.61       GW BOUNDARY FLOW =            720.48
                WELLS =           1014.54                  WELLS =            506.90

   INFLOWS - OUTFLOWS =        -156394.09     INFLOWS - OUTFLOWS =         -71201.01
             --------                                   --------

 TOTAL STORAGE CHANGE =        -156388.98         STORAGE CHANGE =         -71198.45
       --------------                             --------------
         LAND SURFACE =        -408946.69           LAND SURFACE =        -164350.26
            SOIL ZONE =         272269.22              SOIL ZONE =         102792.59
     UNSATURATED ZONE =          -4620.68       UNSATURATED ZONE =          -2054.16
       SATURATED ZONE =         -15090.83         SATURATED ZONE =          -7586.62

 OVERALL BUDGET ERROR =             -5.10           BUDGET ERROR =             -2.55


  PERCENT DISCREPANCY =             -0.00    PERCENT DISCREPANCY =             -0.00



1
 SUMMARY VOLUMETRIC BUDGET FOR GSFLOW 
 DATE: 11 06 1983              CUMULATIVE TIME STEP:    1131
 MODFLOW STRESS PERIOD      2     CURRENT TIME STEP:       3     ITERATIONS:       9

 -----------------------------------------------------------------------------------

   CUMULATIVE VOLUMES               L**3   RATES FOR THIS TIME STEP           L**3/T
   ------------------                      ------------------------

                                     IN                                         IN
                                     --                                         --
        PRECIPITATION =         200699.93          PRECIPITATION =         200699.93
           STREAMFLOW =                               STREAMFLOW =                  
     GW BOUNDARY FLOW =                         GW BOUNDARY FLOW =                  
                WELLS =             81.47                  WELLS =             26.99


                                    OUT                                        OUT
                                    ---                                        ---
   EVAPOTRANSPIRATION =         126413.88     EVAPOTRANSPIRATION =          30001.07
           STREAMFLOW =          98652.40             STREAMFLOW =          41071.79
     GW BOUNDARY FLOW =           2161.81       GW BOUNDARY FLOW =            721.20
                WELLS =           1520.73                  WELLS =            506.19

   INFLOWS - OUTFLOWS =         -27967.42     INFLOWS - OUTFLOWS =         128426.67
             --------                                   --------

 TOTAL STORAGE CHANGE =         -27959.63         STORAGE CHANGE =         128429.35
       --------------                             --------------
         LAND SURFACE =        -452594.18           LAND SURFACE =         -43647.50
            SOIL ZONE =         452061.62              SOIL ZONE =         179792.41
     UNSATURATED ZONE =          -5363.74       UNSATURATED ZONE =           -743.06
       SATURATED ZONE =         -22063.33         SATURATED ZONE =          -6972.50

 OVERALL BUDGET ERROR =             -7.78           BUDGET ERROR =             -2.68


  PERCENT DISCREPANCY =             -0.00    PERCENT DISCREPANCY =             -0.00



1
 SUMMARY VOLUMETRIC BUDGET FOR GSFLOW 
 DATE: 11 07 1983              CUMULATIVE TIME STEP:    1132
 MODFLOW STRESS PERIOD      2     CURRENT TIME STEP:       4     ITERATIONS:       9

 -----------------------------------------------------------------------------------

   CUMULATIVE VOLUMES               L**3   RATES FOR THIS TIME STEP           L**3/T
   ------------------                      ------------------------

                                     IN                                         IN
                                     --                                         --
        PRECIPITATION =         427438.19          PRECIPITATION =         226738.25
           STREAMFLOW =                               STREAMFLOW =                  
     GW BOUNDARY FLOW =                         GW BOUNDARY FLOW =                  
                WELLS =            108.29                  WELLS =             26.82


                                    OUT                                        OUT
                                    ---                                        ---
   EVAPOTRANSPIRATION =         152730.26     EVAPOTRANSPIRATION =          26316.38
           STREAMFLOW =         152460.44             STREAMFLOW =          53808.04
     GW BOUNDARY FLOW =           2883.93       GW BOUNDARY FLOW =            722.12
                WELLS =           2026.24                  WELLS =            505.52

   INFLOWS - OUTFLOWS =         117445.60     INFLOWS - OUTFLOWS =         145413.02
             --------                                   --------

 TOTAL STORAGE CHANGE =         117456.06         STORAGE CHANGE =         145415.70
       --------------                             --------------
         LAND SURFACE =        -500900.38           LAND SURFACE =         -48306.20
            SOIL ZONE =         649638.18              SOIL ZONE =         197576.55
     UNSATURATED ZONE =          -2747.12       UNSATURATED ZONE =           2616.62
       SATURATED ZONE =         -28534.61         SATURATED ZONE =          -6471.28

 OVERALL BUDGET ERROR =            -10.46           BUDGET ERROR =             -2.68


  PERCENT DISCREPANCY =             -0.00    PERCENT DISCREPANCY =             -0.00



1
 SUMMARY VOLUMETRIC BUDGET FOR GSFLOW 
 DATE: 11 08 1983              CUMULATIVE TIME STEP:    1133
 MODFLOW STRESS PERIOD      2     CURRENT TIME STEP:       5     ITERATIONS:       9

 -----------------------------------------------------------------------------------

   CUMULATIVE VOLUMES               L**3   RATES FOR THIS TIME STEP           L**3/T
   ------------------                      ------------------------

                                     IN                                         IN
                                     --                                         --
        PRECIPITATION =         427438.19          PRECIPITATION =                  
           STREAMFLOW =                               STREAMFLOW =                  
     GW BOUNDARY FLOW =                         GW BOUNDARY FLOW =                  
                WELLS =            134.93                  WELLS =             26.64


                                    OUT                                        OUT
                                    ---                                        ---
   EVAPOTRANSPIRATION =         165883.20     EVAPOTRANSPIRATION =          13152.94
           STREAMFLOW =         185775.90             STREAMFLOW =          33315.46
     GW BOUNDARY FLOW =           3605.85       GW BOUNDARY FLOW =            721.92
                WELLS =           2531.06                  WELLS =            504.82

   INFLOWS - OUTFLOWS =          69777.11     INFLOWS - OUTFLOWS =         -47668.49
             --------                                   --------

 TOTAL STORAGE CHANGE =          69789.99         STORAGE CHANGE =         -47666.08
       --------------                             --------------
         LAND SURFACE =        -513974.72           LAND SURFACE =         -13074.33
            SOIL ZONE =         621111.87              SOIL ZONE =         -28526.31
     UNSATURATED ZONE =           -697.16       UNSATURATED ZONE =           2049.96
       SATURATED ZONE =         -36650.00         SATURATED ZONE =          -8115.39

 OVERALL BUDGET ERROR =            -12.88           BUDGET ERROR =             -2.42


  PERCENT DISCREPANCY =             -0.00    PERCENT DISCREPANCY =             -0.01



1
 SUMMARY VOLUMETRIC BUDGET FOR GSFLOW 
 DATE: 11 09 1983              CUMULATIVE TIME STEP:    1134
 MODFLOW STRESS PERIOD      2     CURRENT TIME STEP:       6     ITERATIONS:       9

 -----------------------------------------------------------------------------------

   CUMULATIVE VOLUMES               L**3   RATES FOR THIS TIME STEP           L**3/T
   ------------------                      ------------------------

                                     IN                                         IN
                                     --                                         --
        PRECIPITATION =         623322.54          PRECIPITATION =         195884.35
           STREAMFLOW =                               STREAMFLOW =                  
     GW BOUNDARY FLOW =                         GW BOUNDARY FLOW =                  
                WELLS =            161.37                  WELLS =             26.44


                                    OUT                                        OUT
                                    ---                                        ---
   EVAPOTRANSPIRATION =         179353.28     EVAPOTRANSPIRATION =          13470.08
           STREAMFLOW =         220653.28             STREAMFLOW =          34877.38
     GW BOUNDARY FLOW =           4327.71       GW BOUNDARY FLOW =            721.86
                WELLS =           3035.17                  WELLS =            504.11

   INFLOWS - OUTFLOWS =         216114.46     INFLOWS - OUTFLOWS =         146337.35
             --------                                   --------

 TOTAL STORAGE CHANGE =         216129.85         STORAGE CHANGE =         146339.86
       --------------                             --------------
         LAND SURFACE =        -375671.33           LAND SURFACE =         138303.39
            SOIL ZONE =         635030.57              SOIL ZONE =          13918.70
     UNSATURATED ZONE =           1318.80       UNSATURATED ZONE =           2015.97
       SATURATED ZONE =         -44548.20         SATURATED ZONE =          -7898.20

 OVERALL BUDGET ERROR =            -15.39           BUDGET ERROR =             -2.51


  PERCENT DISCREPANCY =             -0.00    PERCENT DISCREPANCY =             -0.00



1
 SUMMARY VOLUMETRIC BUDGET FOR GSFLOW 
 DATE: 11 10 1983              CUMULATIVE TIME STEP:    1135
 MODFLOW STRESS PERIOD      2     CURRENT TIME STEP:       7     ITERATIONS:       8

 -----------------------------------------------------------------------------------

   CUMULATIVE VOLUMES               L**3   RATES FOR THIS TIME STEP           L**3/T
   ------------------                      ------------------------

                                     IN                                         IN
                                     --                                         --
        PRECIPITATION =        1961472.48          PRECIPITATION =        1338149.95
           STREAMFLOW =                               STREAMFLOW =                  
     GW BOUNDARY FLOW =                         GW BOUNDARY FLOW =                  
                WELLS =            187.62                  WELLS =             26.25


                                    OUT                                        OUT
                                    ---                                        ---
   EVAPOTRANSPIRATION =         195825.44     EVAPOTRANSPIRATION =          16472.16
           STREAMFLOW =         310506.79             STREAMFLOW =          89853.51
     GW BOUNDARY FLOW =           5051.53       GW BOUNDARY FLOW =            723.82
                WELLS =           3538.65                  WELLS =            503.47

   INFLOWS - OUTFLOWS =        1446737.69     INFLOWS - OUTFLOWS =        1230623.23
             --------                                   --------

 TOTAL STORAGE CHANGE =        1446755.67         STORAGE CHANGE =        1230625.82
       --------------                             --------------
         LAND SURFACE =         661129.49           LAND SURFACE =        1036800.81
            SOIL ZONE =         827973.71              SOIL ZONE =         192943.14
     UNSATURATED ZONE =           8340.85       UNSATURATED ZONE =           7022.05
       SATURATED ZONE =         -50688.38         SATURATED ZONE =          -6140.18

 OVERALL BUDGET ERROR =            -17.97           BUDGET ERROR =             -2.58


  PERCENT DISCREPANCY =             -0.00    PERCENT DISCREPANCY =             -0.00



