1
 SUMMARY VOLUMETRIC BUDGET FOR GSFLOW 
 DATE: 10 14 1983              CUMULATIVE TIME STEP:    1108
 MODFLOW STRESS PERIOD      2     CURRENT TIME STEP:       1     ITERATIONS:       9

 -----------------------------------------------------------------------------------

   CUMULATIVE VOLUMES               L**3   RATES FOR THIS TIME STEP           L**3/T
   ------------------                      ------------------------

                                     IN                                         IN
                                     --                                         --
        PRECIPITATION =                            PRECIPITATION =                  
           STREAMFLOW =                               STREAMFLOW =                  
     GW BOUNDARY FLOW =                         GW BOUNDARY FLOW =                  
                WELLS =             21.36                  WELLS =             21.36


                                    OUT                                        OUT
                                    ---                                        ---
   EVAPOTRANSPIRATION =          16315.74     EVAPOTRANSPIRATION =          16315.74
           STREAMFLOW =           4418.08             STREAMFLOW =           4418.08
     GW BOUNDARY FLOW =            717.35       GW BOUNDARY FLOW =            717.35
                WELLS =           1292.80                  WELLS =           1292.80

   INFLOWS - OUTFLOWS =         -22722.62     INFLOWS - OUTFLOWS =         -22722.62
             --------                                   --------

 TOTAL STORAGE CHANGE =         -22720.17         STORAGE CHANGE =         -22720.17
       --------------                             --------------
         LAND SURFACE =          -2293.65           LAND SURFACE =          -2293.65
            SOIL ZONE =          -4855.95              SOIL ZONE =          -4855.95
     UNSATURATED ZONE =          -5810.98       UNSATURATED ZONE =          -5810.98
       SATURATED ZONE =          -9759.58         SATURATED ZONE =          -9759.58

 OVERALL BUDGET ERROR =             -2.45           BUDGET ERROR =             -2.45


  PERCENT DISCREPANCY =             -0.01    PERCENT DISCREPANCY =             -0.01



1
 SUMMARY VOLUMETRIC BUDGET FOR GSFLOW 
 DATE: 10 15 1983              CUMULATIVE TIME STEP:    1109
 MODFLOW STRESS PERIOD      2     CURRENT TIME STEP:       2     ITERATIONS:       9

 -----------------------------------------------------------------------------------

   CUMULATIVE VOLUMES               L**3   RATES FOR THIS TIME STEP           L**3/T
   ------------------                      ------------------------

                                     IN                                         IN
                                     --                                         --
        PRECIPITATION =                            PRECIPITATION =                  
           STREAMFLOW =                               STREAMFLOW =                  
     GW BOUNDARY FLOW =                         GW BOUNDARY FLOW =                  
                WELLS =             42.74                  WELLS =             21.39


                                    OUT                                        OUT
                                    ---                                        ---
   EVAPOTRANSPIRATION =          30201.17     EVAPOTRANSPIRATION =          13885.42
           STREAMFLOW =           8675.38             STREAMFLOW =           4257.31
     GW BOUNDARY FLOW =           1434.67       GW BOUNDARY FLOW =            717.32
                WELLS =           2580.88                  WELLS =           1288.08

   INFLOWS - OUTFLOWS =         -42849.36     INFLOWS - OUTFLOWS =         -20126.74
             --------                                   --------

 TOTAL STORAGE CHANGE =         -42844.39         STORAGE CHANGE =         -20124.22
       --------------                             --------------
         LAND SURFACE =          -2293.65           LAND SURFACE =                  
            SOIL ZONE =          -9354.89              SOIL ZONE =          -4498.94
     UNSATURATED ZONE =         -11696.00       UNSATURATED ZONE =          -5885.02
       SATURATED ZONE =         -19499.85         SATURATED ZONE =          -9740.27

 OVERALL BUDGET ERROR =             -4.97           BUDGET ERROR =             -2.52


  PERCENT DISCREPANCY =             -0.01    PERCENT DISCREPANCY =             -0.01



1
 SUMMARY VOLUMETRIC BUDGET FOR GSFLOW 
 DATE: 10 16 1983              CUMULATIVE TIME STEP:    1110
 MODFLOW STRESS PERIOD      2     CURRENT TIME STEP:       3     ITERATIONS:       9

 -----------------------------------------------------------------------------------

   CUMULATIVE VOLUMES               L**3   RATES FOR THIS TIME STEP           L**3/T
   ------------------                      ------------------------

                                     IN                                         IN
                                     --                                         --
        PRECIPITATION =                            PRECIPITATION =                  
           STREAMFLOW =                               STREAMFLOW =                  
     GW BOUNDARY FLOW =                         GW BOUNDARY FLOW =                  
                WELLS =             64.16                  WELLS =             21.42


                                    OUT                                        OUT
                                    ---                                        ---
   EVAPOTRANSPIRATION =          47602.11     EVAPOTRANSPIRATION =          17400.94
           STREAMFLOW =          12837.18             STREAMFLOW =           4161.79
     GW BOUNDARY FLOW =           2151.97       GW BOUNDARY FLOW =            717.30
                WELLS =           3864.44                  WELLS =           1283.55

   INFLOWS - OUTFLOWS =         -66391.53     INFLOWS - OUTFLOWS =         -23542.17
             --------                                   --------

 TOTAL STORAGE CHANGE =         -66383.98         STORAGE CHANGE =         -23539.59
       --------------                             --------------
         LAND SURFACE =          -2293.65           LAND SURFACE =                  
            SOIL ZONE =         -17243.64              SOIL ZONE =          -7888.75
     UNSATURATED ZONE =         -17630.75       UNSATURATED ZONE =          -5934.75
       SATURATED ZONE =         -29215.94         SATURATED ZONE =          -9716.09

 OVERALL BUDGET ERROR =             -7.55           BUDGET ERROR =             -2.59


  PERCENT DISCREPANCY =             -0.01    PERCENT DISCREPANCY =             -0.01



1
 SUMMARY VOLUMETRIC BUDGET FOR GSFLOW 
 DATE: 10 17 1983              CUMULATIVE TIME STEP:    1111
 MODFLOW STRESS PERIOD      2     CURRENT TIME STEP:       4     ITERATIONS:       9

 -----------------------------------------------------------------------------------

   CUMULATIVE VOLUMES               L**3   RATES FOR THIS TIME STEP           L**3/T
   ------------------                      ------------------------

                                     IN                                         IN
                                     --                                         --
        PRECIPITATION =                            PRECIPITATION =                  
           STREAMFLOW =                               STREAMFLOW =                  
     GW BOUNDARY FLOW =                         GW BOUNDARY FLOW =                  
                WELLS =             85.61                  WELLS =             21.45


                                    OUT                                        OUT
                                    ---                                        ---
   EVAPOTRANSPIRATION =          70449.63     EVAPOTRANSPIRATION =          22847.51
           STREAMFLOW =          16930.19             STREAMFLOW =           4093.01
     GW BOUNDARY FLOW =           2869.25       GW BOUNDARY FLOW =            717.28
                WELLS =           5143.64                  WELLS =           1279.21

   INFLOWS - OUTFLOWS =         -95307.09     INFLOWS - OUTFLOWS =         -28915.56
             --------                                   --------

 TOTAL STORAGE CHANGE =         -95296.88         STORAGE CHANGE =         -28912.90
       --------------                             --------------
         LAND SURFACE =          -2293.65           LAND SURFACE =                  
            SOIL ZONE =         -30491.16              SOIL ZONE =         -13247.52
     UNSATURATED ZONE =         -23599.29       UNSATURATED ZONE =          -5968.54
       SATURATED ZONE =         -38912.77         SATURATED ZONE =          -9696.84

 OVERALL BUDGET ERROR =            -10.22           BUDGET ERROR =             -2.66


  PERCENT DISCREPANCY =             -0.01    PERCENT DISCREPANCY =             -0.01



1
 SUMMARY VOLUMETRIC BUDGET FOR GSFLOW 
 DATE: 10 18 1983              CUMULATIVE TIME STEP:    1112
 MODFLOW STRESS PERIOD      2     CURRENT TIME STEP:       5     ITERATIONS:       9

 -----------------------------------------------------------------------------------

   CUMULATIVE VOLUMES               L**3   RATES FOR THIS TIME STEP           L**3/T
   ------------------                      ------------------------

                                     IN                                         IN
                                     --                                         --
        PRECIPITATION =                            PRECIPITATION =                  
           STREAMFLOW =                               STREAMFLOW =                  
     GW BOUNDARY FLOW =                         GW BOUNDARY FLOW =                  
                WELLS =            107.09                  WELLS =             21.48


                                    OUT                                        OUT
                                    ---                                        ---
   EVAPOTRANSPIRATION =         106762.15     EVAPOTRANSPIRATION =          36312.52
           STREAMFLOW =          20972.71             STREAMFLOW =           4042.53
     GW BOUNDARY FLOW =           3586.52       GW BOUNDARY FLOW =            717.27
                WELLS =           6418.67                  WELLS =           1275.03

   INFLOWS - OUTFLOWS =        -137632.96     INFLOWS - OUTFLOWS =         -42325.87
             --------                                   --------

 TOTAL STORAGE CHANGE =        -137620.04         STORAGE CHANGE =         -42323.16
       --------------                             --------------
         LAND SURFACE =          -2473.70           LAND SURFACE =           -180.05
            SOIL ZONE =         -56964.36              SOIL ZONE =         -26473.20
     UNSATURATED ZONE =         -29608.79       UNSATURATED ZONE =          -6009.50
       SATURATED ZONE =         -48573.19         SATURATED ZONE =          -9660.42

 OVERALL BUDGET ERROR =            -12.92           BUDGET ERROR =             -2.71


  PERCENT DISCREPANCY =             -0.01    PERCENT DISCREPANCY =             -0.01



1
 SUMMARY VOLUMETRIC BUDGET FOR GSFLOW 
 DATE: 10 19 1983              CUMULATIVE TIME STEP:    1113
 MODFLOW STRESS PERIOD      2     CURRENT TIME STEP:       6     ITERATIONS:       9

 -----------------------------------------------------------------------------------

   CUMULATIVE VOLUMES               L**3   RATES FOR THIS TIME STEP           L**3/T
   ------------------                      ------------------------

                                     IN                                         IN
                                     --                                         --
        PRECIPITATION =                            PRECIPITATION =                  
           STREAMFLOW =                               STREAMFLOW =                  
     GW BOUNDARY FLOW =                         GW BOUNDARY FLOW =                  
                WELLS =            128.60                  WELLS =             21.51


                                    OUT                                        OUT
                                    ---                                        ---
   EVAPOTRANSPIRATION =         142011.60     EVAPOTRANSPIRATION =          35249.45
           STREAMFLOW =          24990.33             STREAMFLOW =           4017.62
     GW BOUNDARY FLOW =           4303.79       GW BOUNDARY FLOW =            717.26
                WELLS =           7689.69                  WELLS =           1271.02

   INFLOWS - OUTFLOWS =        -178866.81     INFLOWS - OUTFLOWS =         -41233.85
             --------                                   --------

 TOTAL STORAGE CHANGE =        -178851.14         STORAGE CHANGE =         -41231.10
       --------------                             --------------
         LAND SURFACE =          -6127.04           LAND SURFACE =          -3653.34
            SOIL ZONE =         -78880.02              SOIL ZONE =         -21915.65
     UNSATURATED ZONE =         -35626.70       UNSATURATED ZONE =          -6017.91
       SATURATED ZONE =         -58217.39         SATURATED ZONE =          -9644.20

 OVERALL BUDGET ERROR =            -15.67           BUDGET ERROR =             -2.74


  PERCENT DISCREPANCY =             -0.01    PERCENT DISCREPANCY =             -0.01



1
 SUMMARY VOLUMETRIC BUDGET FOR GSFLOW 
 DATE: 10 20 1983              CUMULATIVE TIME STEP:    1114
 MODFLOW STRESS PERIOD      2     CURRENT TIME STEP:       7     ITERATIONS:      10

 -----------------------------------------------------------------------------------

   CUMULATIVE VOLUMES               L**3   RATES FOR THIS TIME STEP           L**3/T
   ------------------                      ------------------------

                                     IN                                         IN
                                     --                                         --
        PRECIPITATION =                            PRECIPITATION =                  
           STREAMFLOW =                               STREAMFLOW =                  
     GW BOUNDARY FLOW =                         GW BOUNDARY FLOW =                  
                WELLS =            151.70                  WELLS =             23.10


                                    OUT                                        OUT
                                    ---                                        ---
   EVAPOTRANSPIRATION =         177295.41     EVAPOTRANSPIRATION =          35283.82
           STREAMFLOW =          29000.60             STREAMFLOW =           4010.26
     GW BOUNDARY FLOW =           5021.05       GW BOUNDARY FLOW =            717.26
                WELLS =           8583.00                  WELLS =            893.31

   INFLOWS - OUTFLOWS =        -219748.36     INFLOWS - OUTFLOWS =         -40881.55
             --------                                   --------

 TOTAL STORAGE CHANGE =        -219729.95         STORAGE CHANGE =         -40878.81
       --------------                             --------------
         LAND SURFACE =         -10287.79           LAND SURFACE =          -4160.75
            SOIL ZONE =        -100292.64              SOIL ZONE =         -21412.62
     UNSATURATED ZONE =         -41674.39       UNSATURATED ZONE =          -6047.69
       SATURATED ZONE =         -67475.13         SATURATED ZONE =          -9257.74

 OVERALL BUDGET ERROR =            -18.41           BUDGET ERROR =             -2.75


  PERCENT DISCREPANCY =             -0.01    PERCENT DISCREPANCY =             -0.01



 Number of time steps:      7;  Number of non-convergence:   0
 MF iterations:            64;  SZ iterations:              64
 Average MF iterations:  9.14;  Average SZ iterations:    9.14
 Maximum MF iterations:    10;  Maximum SZ iterations:      10

MF iteration distribution:      0    0    0    0    0    0    0    0    6    1
                                0    0    0    0    0    0    0    0    0    0
                                0    0    0    0    0    0    0    0    0    0
                                0    0    0    0    0    0    0    0    0    0
                                0    0    0    0    0    0    0    0    0    0
                                0    0    0    0    0    0    0    0    0    0
                                0    0    0    0    0    0    0    0    0    0
                                0    0    0    0    0    0    0    0    0    0

SZ computation distribution:    0    0    0    0    0    0    0    0    6    1
                                0    0    0    0    0    0    0    0    0    0
                                0    0    0    0    0    0    0    0    0    0
                                0    0    0    0    0    0    0    0    0    0
                                0    0    0    0    0    0    0    0    0    0
                                0    0    0    0    0    0    0    0    0    0
                                0    0    0    0    0    0    0    0    0    0
                                0    0    0    0    0    0    0    0    0    0

