1
 SUMMARY VOLUMETRIC BUDGET FOR GSFLOW 
 DATE: 09 23 1983              CUMULATIVE TIME STEP:    1087
 MODFLOW STRESS PERIOD      2     CURRENT TIME STEP:       1     ITERATIONS:      10

 -----------------------------------------------------------------------------------

   CUMULATIVE VOLUMES               L**3   RATES FOR THIS TIME STEP           L**3/T
   ------------------                      ------------------------

                                     IN                                         IN
                                     --                                         --
        PRECIPITATION =         222782.69          PRECIPITATION =         222782.69
           STREAMFLOW =                               STREAMFLOW =                  
     GW BOUNDARY FLOW =                         GW BOUNDARY FLOW =                  
                WELLS =             12.27                  WELLS =             12.27


                                    OUT                                        OUT
                                    ---                                        ---
   EVAPOTRANSPIRATION =          19963.07     EVAPOTRANSPIRATION =          19963.07
           STREAMFLOW =          13668.04             STREAMFLOW =          13668.04
     GW BOUNDARY FLOW =            717.21       GW BOUNDARY FLOW =            717.21
                WELLS =            431.55                  WELLS =            431.55

   INFLOWS - OUTFLOWS =         188015.09     INFLOWS - OUTFLOWS =         188015.09
             --------                                   --------

 TOTAL STORAGE CHANGE =         188017.26         STORAGE CHANGE =         188017.26
       --------------                             --------------
         LAND SURFACE =         -10684.77           LAND SURFACE =         -10684.77
            SOIL ZONE =         211394.42              SOIL ZONE =         211394.42
     UNSATURATED ZONE =          -5061.86       UNSATURATED ZONE =          -5061.86
       SATURATED ZONE =          -7630.52         SATURATED ZONE =          -7630.52

 OVERALL BUDGET ERROR =             -2.17           BUDGET ERROR =             -2.17


  PERCENT DISCREPANCY =             -0.00    PERCENT DISCREPANCY =             -0.00



1
 SUMMARY VOLUMETRIC BUDGET FOR GSFLOW 
 DATE: 09 24 1983              CUMULATIVE TIME STEP:    1088
 MODFLOW STRESS PERIOD      2     CURRENT TIME STEP:       2     ITERATIONS:      10

 -----------------------------------------------------------------------------------

   CUMULATIVE VOLUMES               L**3   RATES FOR THIS TIME STEP           L**3/T
   ------------------                      ------------------------

                                     IN                                         IN
                                     --                                         --
        PRECIPITATION =         222782.69          PRECIPITATION =                  
           STREAMFLOW =                               STREAMFLOW =                  
     GW BOUNDARY FLOW =                         GW BOUNDARY FLOW =                  
                WELLS =             24.26                  WELLS =             12.00


                                    OUT                                        OUT
                                    ---                                        ---
   EVAPOTRANSPIRATION =          46573.63     EVAPOTRANSPIRATION =          26610.56
           STREAMFLOW =          22390.66             STREAMFLOW =           8722.62
     GW BOUNDARY FLOW =           1434.44       GW BOUNDARY FLOW =            717.23
                WELLS =            860.85                  WELLS =            429.31

   INFLOWS - OUTFLOWS =         151547.37     INFLOWS - OUTFLOWS =         -36467.72
             --------                                   --------

 TOTAL STORAGE CHANGE =         151551.67         STORAGE CHANGE =         -36465.59
       --------------                             --------------
         LAND SURFACE =         -40953.28           LAND SURFACE =         -30268.51
            SOIL ZONE =         218729.75              SOIL ZONE =           7335.34
     UNSATURATED ZONE =         -10105.71       UNSATURATED ZONE =          -5043.84
       SATURATED ZONE =         -16119.09         SATURATED ZONE =          -8488.57

 OVERALL BUDGET ERROR =             -4.29           BUDGET ERROR =             -2.13


  PERCENT DISCREPANCY =             -0.00    PERCENT DISCREPANCY =             -0.01



1
 SUMMARY VOLUMETRIC BUDGET FOR GSFLOW 
 DATE: 09 25 1983              CUMULATIVE TIME STEP:    1089
 MODFLOW STRESS PERIOD      2     CURRENT TIME STEP:       3     ITERATIONS:      10

 -----------------------------------------------------------------------------------

   CUMULATIVE VOLUMES               L**3   RATES FOR THIS TIME STEP           L**3/T
   ------------------                      ------------------------

                                     IN                                         IN
                                     --                                         --
        PRECIPITATION =         222782.69          PRECIPITATION =                  
           STREAMFLOW =                               STREAMFLOW =                  
     GW BOUNDARY FLOW =                         GW BOUNDARY FLOW =                  
                WELLS =             36.34                  WELLS =             12.08


                                    OUT                                        OUT
                                    ---                                        ---
   EVAPOTRANSPIRATION =          78934.67     EVAPOTRANSPIRATION =          32361.04
           STREAMFLOW =          30692.50             STREAMFLOW =           8301.84
     GW BOUNDARY FLOW =           2151.68       GW BOUNDARY FLOW =            717.24
                WELLS =           1797.46                  WELLS =            936.61

   INFLOWS - OUTFLOWS =         109242.73     INFLOWS - OUTFLOWS =         -42304.65
             --------                                   --------

 TOTAL STORAGE CHANGE =         109249.13         STORAGE CHANGE =         -42302.54
       --------------                             --------------
         LAND SURFACE =         -55445.12           LAND SURFACE =         -14491.84
            SOIL ZONE =         204854.89              SOIL ZONE =         -13874.86
     UNSATURATED ZONE =         -14991.88       UNSATURATED ZONE =          -4886.17
       SATURATED ZONE =         -25168.76         SATURATED ZONE =          -9049.66

 OVERALL BUDGET ERROR =             -6.41           BUDGET ERROR =             -2.11


  PERCENT DISCREPANCY =             -0.00    PERCENT DISCREPANCY =             -0.00



1
 SUMMARY VOLUMETRIC BUDGET FOR GSFLOW 
 DATE: 09 26 1983              CUMULATIVE TIME STEP:    1090
 MODFLOW STRESS PERIOD      2     CURRENT TIME STEP:       4     ITERATIONS:      10

 -----------------------------------------------------------------------------------

   CUMULATIVE VOLUMES               L**3   RATES FOR THIS TIME STEP           L**3/T
   ------------------                      ------------------------

                                     IN                                         IN
                                     --                                         --
        PRECIPITATION =         222782.69          PRECIPITATION =                  
           STREAMFLOW =                               STREAMFLOW =                  
     GW BOUNDARY FLOW =                         GW BOUNDARY FLOW =                  
                WELLS =             52.98                  WELLS =             16.64


                                    OUT                                        OUT
                                    ---                                        ---
   EVAPOTRANSPIRATION =         127406.13     EVAPOTRANSPIRATION =          48471.46
           STREAMFLOW =          38707.06             STREAMFLOW =           8014.56
     GW BOUNDARY FLOW =           2868.93       GW BOUNDARY FLOW =            717.25
                WELLS =           2708.13                  WELLS =            910.67

   INFLOWS - OUTFLOWS =          51145.42     INFLOWS - OUTFLOWS =         -58097.30
             --------                                   --------

 TOTAL STORAGE CHANGE =          51153.82         STORAGE CHANGE =         -58095.31
       --------------                             --------------
         LAND SURFACE =         -64695.66           LAND SURFACE =          -9250.54
            SOIL ZONE =         169816.55              SOIL ZONE =         -35038.34
     UNSATURATED ZONE =         -19784.64       UNSATURATED ZONE =          -4792.76
       SATURATED ZONE =         -34182.43         SATURATED ZONE =          -9013.67

 OVERALL BUDGET ERROR =             -8.40           BUDGET ERROR =             -1.99


  PERCENT DISCREPANCY =             -0.00    PERCENT DISCREPANCY =             -0.00



1
 SUMMARY VOLUMETRIC BUDGET FOR GSFLOW 
 DATE: 09 27 1983              CUMULATIVE TIME STEP:    1091
 MODFLOW STRESS PERIOD      2     CURRENT TIME STEP:       5     ITERATIONS:      10

 -----------------------------------------------------------------------------------

   CUMULATIVE VOLUMES               L**3   RATES FOR THIS TIME STEP           L**3/T
   ------------------                      ------------------------

                                     IN                                         IN
                                     --                                         --
        PRECIPITATION =         222782.69          PRECIPITATION =                  
           STREAMFLOW =                               STREAMFLOW =                  
     GW BOUNDARY FLOW =                         GW BOUNDARY FLOW =                  
                WELLS =             70.68                  WELLS =             17.70


                                    OUT                                        OUT
                                    ---                                        ---
   EVAPOTRANSPIRATION =         165099.61     EVAPOTRANSPIRATION =          37693.48
           STREAMFLOW =          45896.04             STREAMFLOW =           7188.98
     GW BOUNDARY FLOW =           3586.16       GW BOUNDARY FLOW =            717.23
                WELLS =           3612.00                  WELLS =            903.88

   INFLOWS - OUTFLOWS =           4659.56     INFLOWS - OUTFLOWS =         -46485.86
             --------                                   --------

 TOTAL STORAGE CHANGE =           4669.78         STORAGE CHANGE =         -46484.04
       --------------                             --------------
         LAND SURFACE =         -71408.21           LAND SURFACE =          -6712.56
            SOIL ZONE =         144031.58              SOIL ZONE =         -25784.96
     UNSATURATED ZONE =         -24678.47       UNSATURATED ZONE =          -4893.83
       SATURATED ZONE =         -43275.12         SATURATED ZONE =          -9092.69

 OVERALL BUDGET ERROR =            -10.22           BUDGET ERROR =             -1.82


  PERCENT DISCREPANCY =             -0.00    PERCENT DISCREPANCY =             -0.00



1
 SUMMARY VOLUMETRIC BUDGET FOR GSFLOW 
 DATE: 09 28 1983              CUMULATIVE TIME STEP:    1092
 MODFLOW STRESS PERIOD      2     CURRENT TIME STEP:       6     ITERATIONS:      10

 -----------------------------------------------------------------------------------

   CUMULATIVE VOLUMES               L**3   RATES FOR THIS TIME STEP           L**3/T
   ------------------                      ------------------------

                                     IN                                         IN
                                     --                                         --
        PRECIPITATION =         332646.99          PRECIPITATION =         109864.30
           STREAMFLOW =                               STREAMFLOW =                  
     GW BOUNDARY FLOW =                         GW BOUNDARY FLOW =                  
                WELLS =             88.75                  WELLS =             18.07


                                    OUT                                        OUT
                                    ---                                        ---
   EVAPOTRANSPIRATION =         199006.42     EVAPOTRANSPIRATION =          33906.81
           STREAMFLOW =          54493.03             STREAMFLOW =           8596.99
     GW BOUNDARY FLOW =           4303.51       GW BOUNDARY FLOW =            717.35
                WELLS =           4511.52                  WELLS =            899.52

   INFLOWS - OUTFLOWS =          70421.26     INFLOWS - OUTFLOWS =          65761.71
             --------                                   --------

 TOTAL STORAGE CHANGE =          70433.63         STORAGE CHANGE =          65763.85
       --------------                             --------------
         LAND SURFACE =         -44368.70           LAND SURFACE =          27039.52
            SOIL ZONE =         196274.64              SOIL ZONE =          52243.05
     UNSATURATED ZONE =         -29399.40       UNSATURATED ZONE =          -4720.93
       SATURATED ZONE =         -52072.91         SATURATED ZONE =          -8797.79

 OVERALL BUDGET ERROR =            -12.36           BUDGET ERROR =             -2.14


  PERCENT DISCREPANCY =             -0.00    PERCENT DISCREPANCY =             -0.00



1
 SUMMARY VOLUMETRIC BUDGET FOR GSFLOW 
 DATE: 09 29 1983              CUMULATIVE TIME STEP:    1093
 MODFLOW STRESS PERIOD      2     CURRENT TIME STEP:       7     ITERATIONS:      10

 -----------------------------------------------------------------------------------

   CUMULATIVE VOLUMES               L**3   RATES FOR THIS TIME STEP           L**3/T
   ------------------                      ------------------------

                                     IN                                         IN
                                     --                                         --
        PRECIPITATION =         579655.81          PRECIPITATION =         247008.82
           STREAMFLOW =                               STREAMFLOW =                  
     GW BOUNDARY FLOW =                         GW BOUNDARY FLOW =                  
                WELLS =            107.05                  WELLS =             18.29


                                    OUT                                        OUT
                                    ---                                        ---
   EVAPOTRANSPIRATION =         221475.64     EVAPOTRANSPIRATION =          22469.21
           STREAMFLOW =          69482.60             STREAMFLOW =          14989.58
     GW BOUNDARY FLOW =           5021.37       GW BOUNDARY FLOW =            717.85
                WELLS =           5407.25                  WELLS =            895.73

   INFLOWS - OUTFLOWS =         278375.99     INFLOWS - OUTFLOWS =         207954.73
             --------                                   --------

 TOTAL STORAGE CHANGE =         278390.45         STORAGE CHANGE =         207956.82
       --------------                             --------------
         LAND SURFACE =         -53862.17           LAND SURFACE =          -9493.47
            SOIL ZONE =         425828.82              SOIL ZONE =         229554.18
     UNSATURATED ZONE =         -33396.61       UNSATURATED ZONE =          -3997.21
       SATURATED ZONE =         -60179.59         SATURATED ZONE =          -8106.68

 OVERALL BUDGET ERROR =            -14.45           BUDGET ERROR =             -2.09


  PERCENT DISCREPANCY =             -0.00    PERCENT DISCREPANCY =             -0.00



 Number of time steps:      7;  Number of non-convergence:   0
 MF iterations:            70;  SZ iterations:              70
 Average MF iterations: 10.00;  Average SZ iterations:   10.00
 Maximum MF iterations:    10;  Maximum SZ iterations:      10

MF iteration distribution:      0    0    0    0    0    0    0    0    0    7
                                0    0    0    0    0    0    0    0    0    0
                                0    0    0    0    0    0    0    0    0    0
                                0    0    0    0    0    0    0    0    0    0
                                0    0    0    0    0    0    0    0    0    0
                                0    0    0    0    0    0    0    0    0    0
                                0    0    0    0    0    0    0    0    0    0
                                0    0    0    0    0    0    0    0    0    0

SZ computation distribution:    0    0    0    0    0    0    0    0    0    7
                                0    0    0    0    0    0    0    0    0    0
                                0    0    0    0    0    0    0    0    0    0
                                0    0    0    0    0    0    0    0    0    0
                                0    0    0    0    0    0    0    0    0    0
                                0    0    0    0    0    0    0    0    0    0
                                0    0    0    0    0    0    0    0    0    0
                                0    0    0    0    0    0    0    0    0    0

