1
 SUMMARY VOLUMETRIC BUDGET FOR GSFLOW 
 DATE: 09 23 1983              CUMULATIVE TIME STEP:    1087
 MODFLOW STRESS PERIOD      2     CURRENT TIME STEP:       1     ITERATIONS:      10

 -----------------------------------------------------------------------------------

   CUMULATIVE VOLUMES               L**3   RATES FOR THIS TIME STEP           L**3/T
   ------------------                      ------------------------

                                     IN                                         IN
                                     --                                         --
        PRECIPITATION =         222782.69          PRECIPITATION =         222782.69
           STREAMFLOW =                               STREAMFLOW =                  
     GW BOUNDARY FLOW =                         GW BOUNDARY FLOW =                  
                WELLS =             12.27                  WELLS =             12.27


                                    OUT                                        OUT
                                    ---                                        ---
   EVAPOTRANSPIRATION =          19963.08     EVAPOTRANSPIRATION =          19963.08
           STREAMFLOW =          13668.06             STREAMFLOW =          13668.06
     GW BOUNDARY FLOW =            717.21       GW BOUNDARY FLOW =            717.21
                WELLS =            431.55                  WELLS =            431.55

   INFLOWS - OUTFLOWS =         188015.05     INFLOWS - OUTFLOWS =         188015.05
             --------                                   --------

 TOTAL STORAGE CHANGE =         188017.22         STORAGE CHANGE =         188017.22
       --------------                             --------------
         LAND SURFACE =         -10684.77           LAND SURFACE =         -10684.77
            SOIL ZONE =         211394.49              SOIL ZONE =         211394.49
     UNSATURATED ZONE =          -5061.63       UNSATURATED ZONE =          -5061.63
       SATURATED ZONE =          -7630.88         SATURATED ZONE =          -7630.88

 OVERALL BUDGET ERROR =             -2.17           BUDGET ERROR =             -2.17


  PERCENT DISCREPANCY =             -0.00    PERCENT DISCREPANCY =             -0.00



1
 SUMMARY VOLUMETRIC BUDGET FOR GSFLOW 
 DATE: 09 24 1983              CUMULATIVE TIME STEP:    1088
 MODFLOW STRESS PERIOD      2     CURRENT TIME STEP:       2     ITERATIONS:      10

 -----------------------------------------------------------------------------------

   CUMULATIVE VOLUMES               L**3   RATES FOR THIS TIME STEP           L**3/T
   ------------------                      ------------------------

                                     IN                                         IN
                                     --                                         --
        PRECIPITATION =         222782.69          PRECIPITATION =                  
           STREAMFLOW =                               STREAMFLOW =                  
     GW BOUNDARY FLOW =                         GW BOUNDARY FLOW =                  
                WELLS =             24.26                  WELLS =             12.00


                                    OUT                                        OUT
                                    ---                                        ---
   EVAPOTRANSPIRATION =          46573.64     EVAPOTRANSPIRATION =          26610.56
           STREAMFLOW =          22390.73             STREAMFLOW =           8722.66
     GW BOUNDARY FLOW =           1434.44       GW BOUNDARY FLOW =            717.23
                WELLS =            860.85                  WELLS =            429.31

   INFLOWS - OUTFLOWS =         151547.29     INFLOWS - OUTFLOWS =         -36467.76
             --------                                   --------

 TOTAL STORAGE CHANGE =         151551.58         STORAGE CHANGE =         -36465.64
       --------------                             --------------
         LAND SURFACE =         -40953.28           LAND SURFACE =         -30268.51
            SOIL ZONE =         218729.91              SOIL ZONE =           7335.42
     UNSATURATED ZONE =         -10105.59       UNSATURATED ZONE =          -5043.96
       SATURATED ZONE =         -16119.47         SATURATED ZONE =          -8488.59

 OVERALL BUDGET ERROR =             -4.29           BUDGET ERROR =             -2.12


  PERCENT DISCREPANCY =             -0.00    PERCENT DISCREPANCY =             -0.01



1
 SUMMARY VOLUMETRIC BUDGET FOR GSFLOW 
 DATE: 09 25 1983              CUMULATIVE TIME STEP:    1089
 MODFLOW STRESS PERIOD      2     CURRENT TIME STEP:       3     ITERATIONS:      10

 -----------------------------------------------------------------------------------

   CUMULATIVE VOLUMES               L**3   RATES FOR THIS TIME STEP           L**3/T
   ------------------                      ------------------------

                                     IN                                         IN
                                     --                                         --
        PRECIPITATION =         222782.69          PRECIPITATION =                  
           STREAMFLOW =                               STREAMFLOW =                  
     GW BOUNDARY FLOW =                         GW BOUNDARY FLOW =                  
                WELLS =             36.34                  WELLS =             12.08


                                    OUT                                        OUT
                                    ---                                        ---
   EVAPOTRANSPIRATION =          78934.70     EVAPOTRANSPIRATION =          32361.06
           STREAMFLOW =          30692.63             STREAMFLOW =           8301.91
     GW BOUNDARY FLOW =           2151.68       GW BOUNDARY FLOW =            717.24
                WELLS =           1797.46                  WELLS =            936.61

   INFLOWS - OUTFLOWS =         109242.56     INFLOWS - OUTFLOWS =         -42304.73
             --------                                   --------

 TOTAL STORAGE CHANGE =         109250.58         STORAGE CHANGE =         -42301.00
       --------------                             --------------
         LAND SURFACE =         -55445.12           LAND SURFACE =         -14491.84
            SOIL ZONE =         204856.73              SOIL ZONE =         -13873.18
     UNSATURATED ZONE =         -14991.71       UNSATURATED ZONE =          -4886.12
       SATURATED ZONE =         -25169.33         SATURATED ZONE =          -9049.86

 OVERALL BUDGET ERROR =             -8.02           BUDGET ERROR =             -3.73


  PERCENT DISCREPANCY =             -0.00    PERCENT DISCREPANCY =             -0.01



1
 SUMMARY VOLUMETRIC BUDGET FOR GSFLOW 
 DATE: 09 26 1983              CUMULATIVE TIME STEP:    1090
 MODFLOW STRESS PERIOD      2     CURRENT TIME STEP:       4     ITERATIONS:      10

 -----------------------------------------------------------------------------------

   CUMULATIVE VOLUMES               L**3   RATES FOR THIS TIME STEP           L**3/T
   ------------------                      ------------------------

                                     IN                                         IN
                                     --                                         --
        PRECIPITATION =         222782.69          PRECIPITATION =                  
           STREAMFLOW =                               STREAMFLOW =                  
     GW BOUNDARY FLOW =                         GW BOUNDARY FLOW =                  
                WELLS =             52.98                  WELLS =             16.64


                                    OUT                                        OUT
                                    ---                                        ---
   EVAPOTRANSPIRATION =         127406.21     EVAPOTRANSPIRATION =          48471.51
           STREAMFLOW =          38707.35             STREAMFLOW =           8014.72
     GW BOUNDARY FLOW =           2868.93       GW BOUNDARY FLOW =            717.25
                WELLS =           2708.12                  WELLS =            910.67

   INFLOWS - OUTFLOWS =          51145.05     INFLOWS - OUTFLOWS =         -58097.51
             --------                                   --------

 TOTAL STORAGE CHANGE =          51155.06         STORAGE CHANGE =         -58095.51
       --------------                             --------------
         LAND SURFACE =         -64695.65           LAND SURFACE =          -9250.54
            SOIL ZONE =         169818.33              SOIL ZONE =         -35038.40
     UNSATURATED ZONE =         -19784.05       UNSATURATED ZONE =          -4792.35
       SATURATED ZONE =         -34183.56         SATURATED ZONE =          -9014.23

 OVERALL BUDGET ERROR =            -10.01           BUDGET ERROR =             -1.99


  PERCENT DISCREPANCY =             -0.00    PERCENT DISCREPANCY =             -0.00



1
 SUMMARY VOLUMETRIC BUDGET FOR GSFLOW 
 DATE: 09 27 1983              CUMULATIVE TIME STEP:    1091
 MODFLOW STRESS PERIOD      2     CURRENT TIME STEP:       5     ITERATIONS:      10

 -----------------------------------------------------------------------------------

   CUMULATIVE VOLUMES               L**3   RATES FOR THIS TIME STEP           L**3/T
   ------------------                      ------------------------

                                     IN                                         IN
                                     --                                         --
        PRECIPITATION =         222782.69          PRECIPITATION =                  
           STREAMFLOW =                               STREAMFLOW =                  
     GW BOUNDARY FLOW =                         GW BOUNDARY FLOW =                  
                WELLS =             70.68                  WELLS =             17.70


                                    OUT                                        OUT
                                    ---                                        ---
   EVAPOTRANSPIRATION =         165099.73     EVAPOTRANSPIRATION =          37693.52
           STREAMFLOW =          45896.49             STREAMFLOW =           7189.14
     GW BOUNDARY FLOW =           3586.16       GW BOUNDARY FLOW =            717.23
                WELLS =           3612.00                  WELLS =            903.88

   INFLOWS - OUTFLOWS =           4658.99     INFLOWS - OUTFLOWS =         -46486.07
             --------                                   --------

 TOTAL STORAGE CHANGE =           4670.95         STORAGE CHANGE =         -46484.11
       --------------                             --------------
         LAND SURFACE =         -71408.21           LAND SURFACE =          -6712.56
            SOIL ZONE =         144033.45              SOIL ZONE =         -25784.89
     UNSATURATED ZONE =         -24676.61       UNSATURATED ZONE =          -4892.56
       SATURATED ZONE =         -43277.66         SATURATED ZONE =          -9094.11

 OVERALL BUDGET ERROR =            -11.97           BUDGET ERROR =             -1.95


  PERCENT DISCREPANCY =             -0.01    PERCENT DISCREPANCY =             -0.00



1
 SUMMARY VOLUMETRIC BUDGET FOR GSFLOW 
 DATE: 09 28 1983              CUMULATIVE TIME STEP:    1092
 MODFLOW STRESS PERIOD      2     CURRENT TIME STEP:       6     ITERATIONS:      10

 -----------------------------------------------------------------------------------

   CUMULATIVE VOLUMES               L**3   RATES FOR THIS TIME STEP           L**3/T
   ------------------                      ------------------------

                                     IN                                         IN
                                     --                                         --
        PRECIPITATION =         332646.99          PRECIPITATION =         109864.30
           STREAMFLOW =                               STREAMFLOW =                  
     GW BOUNDARY FLOW =                         GW BOUNDARY FLOW =                  
                WELLS =             88.75                  WELLS =             18.07


                                    OUT                                        OUT
                                    ---                                        ---
   EVAPOTRANSPIRATION =         199006.58     EVAPOTRANSPIRATION =          33906.84
           STREAMFLOW =          54493.69             STREAMFLOW =           8597.20
     GW BOUNDARY FLOW =           4303.51       GW BOUNDARY FLOW =            717.35
                WELLS =           4511.52                  WELLS =            899.52

   INFLOWS - OUTFLOWS =          70420.45     INFLOWS - OUTFLOWS =          65761.46
             --------                                   --------

 TOTAL STORAGE CHANGE =          70438.09         STORAGE CHANGE =          65767.14
       --------------                             --------------
         LAND SURFACE =         -44368.70           LAND SURFACE =          27039.52
            SOIL ZONE =         196279.94              SOIL ZONE =          52246.49
     UNSATURATED ZONE =         -29396.86       UNSATURATED ZONE =          -4720.24
       SATURATED ZONE =         -52076.29         SATURATED ZONE =          -8798.63

 OVERALL BUDGET ERROR =            -17.64           BUDGET ERROR =             -5.67


  PERCENT DISCREPANCY =             -0.01    PERCENT DISCREPANCY =             -0.01



1
 SUMMARY VOLUMETRIC BUDGET FOR GSFLOW 
 DATE: 09 29 1983              CUMULATIVE TIME STEP:    1093
 MODFLOW STRESS PERIOD      2     CURRENT TIME STEP:       7     ITERATIONS:      10

 -----------------------------------------------------------------------------------

   CUMULATIVE VOLUMES               L**3   RATES FOR THIS TIME STEP           L**3/T
   ------------------                      ------------------------

                                     IN                                         IN
                                     --                                         --
        PRECIPITATION =         579655.81          PRECIPITATION =         247008.82
           STREAMFLOW =                               STREAMFLOW =                  
     GW BOUNDARY FLOW =                         GW BOUNDARY FLOW =                  
                WELLS =            107.05                  WELLS =             18.29


                                    OUT                                        OUT
                                    ---                                        ---
   EVAPOTRANSPIRATION =         221475.79     EVAPOTRANSPIRATION =          22469.21
           STREAMFLOW =          69484.07             STREAMFLOW =          14990.38
     GW BOUNDARY FLOW =           5021.37       GW BOUNDARY FLOW =            717.85
                WELLS =           5407.25                  WELLS =            895.73

   INFLOWS - OUTFLOWS =         278374.38     INFLOWS - OUTFLOWS =         207953.93
             --------                                   --------

 TOTAL STORAGE CHANGE =         278394.17         STORAGE CHANGE =         207956.08
       --------------                             --------------
         LAND SURFACE =         -53862.17           LAND SURFACE =          -9493.47
            SOIL ZONE =         425833.52              SOIL ZONE =         229553.58
     UNSATURATED ZONE =         -33392.96       UNSATURATED ZONE =          -3996.10
       SATURATED ZONE =         -60184.22         SATURATED ZONE =          -8107.92

 OVERALL BUDGET ERROR =            -19.79           BUDGET ERROR =             -2.15


  PERCENT DISCREPANCY =             -0.00    PERCENT DISCREPANCY =             -0.00



 Number of time steps:      7;  Number of non-convergence:   0
 MF iterations:            70;  SZ iterations:              70
 Average MF iterations: 10.00;  Average SZ iterations:   10.00
 Maximum MF iterations:    10;  Maximum SZ iterations:      10

MF iteration distribution:      0    0    0    0    0    0    0    0    0    7
                                0    0    0    0    0    0    0    0    0    0
                                0    0    0    0    0    0    0    0    0    0
                                0    0    0    0    0    0    0    0    0    0
                                0    0    0    0    0    0    0    0    0    0
                                0    0    0    0    0    0    0    0    0    0
                                0    0    0    0    0    0    0    0    0    0
                                0    0    0    0    0    0    0    0    0    0

SZ computation distribution:    0    0    0    0    0    0    0    0    0    7
                                0    0    0    0    0    0    0    0    0    0
                                0    0    0    0    0    0    0    0    0    0
                                0    0    0    0    0    0    0    0    0    0
                                0    0    0    0    0    0    0    0    0    0
                                0    0    0    0    0    0    0    0    0    0
                                0    0    0    0    0    0    0    0    0    0
                                0    0    0    0    0    0    0    0    0    0

