1
 SUMMARY VOLUMETRIC BUDGET FOR GSFLOW 
 DATE: 10 13 1983              CUMULATIVE TIME STEP:    1107
 MODFLOW STRESS PERIOD      2     CURRENT TIME STEP:       7     ITERATIONS:      17

 -----------------------------------------------------------------------------------

   CUMULATIVE VOLUMES               L**3   RATES FOR THIS TIME STEP           L**3/T
   ------------------                      ------------------------

                                     IN                                         IN
                                     --                                         --
        PRECIPITATION =                            PRECIPITATION =                  
           STREAMFLOW =                               STREAMFLOW =                  
     GW BOUNDARY FLOW =                         GW BOUNDARY FLOW =                  
                WELLS =             35.03                  WELLS =             33.08


                                    OUT                                        OUT
                                    ---                                        ---
   EVAPOTRANSPIRATION =         357970.62     EVAPOTRANSPIRATION =          55404.08
           STREAMFLOW =          36450.67             STREAMFLOW =           4605.90
     GW BOUNDARY FLOW =           5022.02       GW BOUNDARY FLOW =            717.31
                WELLS =          11232.99                  WELLS =           1277.15

   INFLOWS - OUTFLOWS =        -410641.27     INFLOWS - OUTFLOWS =         -61971.37
             --------                                   --------

 TOTAL STORAGE CHANGE =        -410626.61         STORAGE CHANGE =         -61968.93
       --------------                             --------------
         LAND SURFACE =         -37517.00           LAND SURFACE =          -6137.47
            SOIL ZONE =        -265731.36              SOIL ZONE =         -40452.26
     UNSATURATED ZONE =         -37667.72       UNSATURATED ZONE =          -5737.20
       SATURATED ZONE =         -69710.53         SATURATED ZONE =          -9641.98

 OVERALL BUDGET ERROR =            -14.67           BUDGET ERROR =             -2.44


  PERCENT DISCREPANCY =             -0.00    PERCENT DISCREPANCY =             -0.00



