1
 SUMMARY VOLUMETRIC BUDGET FOR GSFLOW 
 DATE: 11 24 1983              CUMULATIVE TIME STEP:    1149
 MODFLOW STRESS PERIOD      2     CURRENT TIME STEP:       7     ITERATIONS:       8

 -----------------------------------------------------------------------------------

   CUMULATIVE VOLUMES               L**3   RATES FOR THIS TIME STEP           L**3/T
   ------------------                      ------------------------

                                     IN                                         IN
                                     --                                         --
        PRECIPITATION =        3194686.24          PRECIPITATION =        1091405.11
           STREAMFLOW =                               STREAMFLOW =                  
     GW BOUNDARY FLOW =                         GW BOUNDARY FLOW =                  
                WELLS =            140.44                  WELLS =             13.50


                                    OUT                                        OUT
                                    ---                                        ---
   EVAPOTRANSPIRATION =          47977.26     EVAPOTRANSPIRATION =          11574.23
           STREAMFLOW =         194531.72             STREAMFLOW =          21075.26
     GW BOUNDARY FLOW =           5052.88       GW BOUNDARY FLOW =            720.83
                WELLS =           1511.25                  WELLS =            457.71

   INFLOWS - OUTFLOWS =        2945753.56     INFLOWS - OUTFLOWS =        1057590.58
             --------                                   --------

 TOTAL STORAGE CHANGE =        3014769.03         STORAGE CHANGE =        1057590.92
       --------------                             --------------
         LAND SURFACE =        3213737.54           LAND SURFACE =        1079830.88
            SOIL ZONE =        -167557.16              SOIL ZONE =         -15612.64
     UNSATURATED ZONE =          25294.20       UNSATURATED ZONE =           1867.73
       SATURATED ZONE =         -56705.55         SATURATED ZONE =          -8495.05

 OVERALL BUDGET ERROR =         -69015.47           BUDGET ERROR =             -0.33


  PERCENT DISCREPANCY =             -2.14    PERCENT DISCREPANCY =             -0.00



