1
 SUMMARY VOLUMETRIC BUDGET FOR GSFLOW 
 DATE: 09 08 1983              CUMULATIVE TIME STEP:    1072
 MODFLOW STRESS PERIOD      2     CURRENT TIME STEP:       7     ITERATIONS:      10

 -----------------------------------------------------------------------------------

   CUMULATIVE VOLUMES               L**3   RATES FOR THIS TIME STEP           L**3/T
   ------------------                      ------------------------

                                     IN                                         IN
                                     --                                         --
        PRECIPITATION =                            PRECIPITATION =                  
           STREAMFLOW =                               STREAMFLOW =                  
     GW BOUNDARY FLOW =                         GW BOUNDARY FLOW =                  
                WELLS =            181.88                  WELLS =             23.47


                                    OUT                                        OUT
                                    ---                                        ---
   EVAPOTRANSPIRATION =         495250.08     EVAPOTRANSPIRATION =          66625.80
           STREAMFLOW =          66595.78             STREAMFLOW =           8370.91
     GW BOUNDARY FLOW =           5017.82       GW BOUNDARY FLOW =            716.55
                WELLS =           3525.18                  WELLS =            502.35

   INFLOWS - OUTFLOWS =        -570206.97     INFLOWS - OUTFLOWS =         -76192.14
             --------                                   --------

 TOTAL STORAGE CHANGE =        -570195.90         STORAGE CHANGE =         -76190.28
       --------------                             --------------
         LAND SURFACE =        -194606.90           LAND SURFACE =         -24708.45
            SOIL ZONE =        -283661.01              SOIL ZONE =         -37950.97
     UNSATURATED ZONE =         -35410.76       UNSATURATED ZONE =          -5342.82
       SATURATED ZONE =         -56517.22         SATURATED ZONE =          -8188.03

 OVERALL BUDGET ERROR =            -11.07           BUDGET ERROR =             -1.87


  PERCENT DISCREPANCY =             -0.00    PERCENT DISCREPANCY =             -0.00



