1
 SUMMARY VOLUMETRIC BUDGET FOR GSFLOW 
 DATE: 09 16 1983              CUMULATIVE TIME STEP:    1080
 MODFLOW STRESS PERIOD      2     CURRENT TIME STEP:       1     ITERATIONS:      10

 -----------------------------------------------------------------------------------

   CUMULATIVE VOLUMES               L**3   RATES FOR THIS TIME STEP           L**3/T
   ------------------                      ------------------------

                                     IN                                         IN
                                     --                                         --
        PRECIPITATION =                            PRECIPITATION =                  
           STREAMFLOW =                               STREAMFLOW =                  
     GW BOUNDARY FLOW =                         GW BOUNDARY FLOW =                  
                WELLS =             13.05                  WELLS =             13.05


                                    OUT                                        OUT
                                    ---                                        ---
   EVAPOTRANSPIRATION =          46062.00     EVAPOTRANSPIRATION =          46062.00
           STREAMFLOW =           6429.56             STREAMFLOW =           6429.56
     GW BOUNDARY FLOW =            715.95       GW BOUNDARY FLOW =            715.95
                WELLS =            448.67                  WELLS =            448.67

   INFLOWS - OUTFLOWS =         -53643.12     INFLOWS - OUTFLOWS =         -53643.12
             --------                                   --------

 TOTAL STORAGE CHANGE =         625904.70         STORAGE CHANGE =         625904.70
       --------------                             --------------
         LAND SURFACE =         661634.28           LAND SURFACE =         661634.28
            SOIL ZONE =         -21357.33              SOIL ZONE =         -21357.33
     UNSATURATED ZONE =          -5863.68       UNSATURATED ZONE =          -5863.68
       SATURATED ZONE =          -8508.56         SATURATED ZONE =          -8508.56

 OVERALL BUDGET ERROR =        -679547.82           BUDGET ERROR =        -679547.82

  ***WARNING, CUMULATIVE VOLUME OFF > 5%
  ***CAUTION, FLUX RATES OFF > 10%

  PERCENT DISCREPANCY =           -199.99    PERCENT DISCREPANCY =           -199.99



1
 SUMMARY VOLUMETRIC BUDGET FOR GSFLOW 
 DATE: 09 17 1983              CUMULATIVE TIME STEP:    1081
 MODFLOW STRESS PERIOD      2     CURRENT TIME STEP:       2     ITERATIONS:      10

 -----------------------------------------------------------------------------------

   CUMULATIVE VOLUMES               L**3   RATES FOR THIS TIME STEP           L**3/T
   ------------------                      ------------------------

                                     IN                                         IN
                                     --                                         --
        PRECIPITATION =                            PRECIPITATION =                  
           STREAMFLOW =                               STREAMFLOW =                  
     GW BOUNDARY FLOW =                         GW BOUNDARY FLOW =                  
                WELLS =             26.46                  WELLS =             13.41


                                    OUT                                        OUT
                                    ---                                        ---
   EVAPOTRANSPIRATION =          95509.85     EVAPOTRANSPIRATION =          49447.86
           STREAMFLOW =          12908.10             STREAMFLOW =           6478.54
     GW BOUNDARY FLOW =           1431.95       GW BOUNDARY FLOW =            716.00
                WELLS =            895.08                  WELLS =            446.41

   INFLOWS - OUTFLOWS =        -110718.52     INFLOWS - OUTFLOWS =         -57075.40
             --------                                   --------

 TOTAL STORAGE CHANGE =         568831.50         STORAGE CHANGE =         -57073.20
       --------------                             --------------
         LAND SURFACE =         641996.09           LAND SURFACE =         -19638.19
            SOIL ZONE =         -44422.42              SOIL ZONE =         -23065.09
     UNSATURATED ZONE =         -11762.80       UNSATURATED ZONE =          -5899.12
       SATURATED ZONE =         -16979.36         SATURATED ZONE =          -8470.80

 OVERALL BUDGET ERROR =        -679550.02           BUDGET ERROR =             -2.19

  ***WARNING, CUMULATIVE VOLUME OFF > 5%

  PERCENT DISCREPANCY =           -199.98    PERCENT DISCREPANCY =             -0.00



1
 SUMMARY VOLUMETRIC BUDGET FOR GSFLOW 
 DATE: 09 18 1983              CUMULATIVE TIME STEP:    1082
 MODFLOW STRESS PERIOD      2     CURRENT TIME STEP:       3     ITERATIONS:      10

 -----------------------------------------------------------------------------------

   CUMULATIVE VOLUMES               L**3   RATES FOR THIS TIME STEP           L**3/T
   ------------------                      ------------------------

                                     IN                                         IN
                                     --                                         --
        PRECIPITATION =                            PRECIPITATION =                  
           STREAMFLOW =                               STREAMFLOW =                  
     GW BOUNDARY FLOW =                         GW BOUNDARY FLOW =                  
                WELLS =             39.82                  WELLS =             13.36


                                    OUT                                        OUT
                                    ---                                        ---
   EVAPOTRANSPIRATION =         133440.31     EVAPOTRANSPIRATION =          37930.46
           STREAMFLOW =          18998.96             STREAMFLOW =           6090.87
     GW BOUNDARY FLOW =           2148.02       GW BOUNDARY FLOW =            716.08
                WELLS =           1338.91                  WELLS =            443.83

   INFLOWS - OUTFLOWS =        -155886.38     INFLOWS - OUTFLOWS =         -45167.86
             --------                                   --------

 TOTAL STORAGE CHANGE =         523665.76         STORAGE CHANGE =         -45165.74
       --------------                             --------------
         LAND SURFACE =         627129.56           LAND SURFACE =         -14866.52
            SOIL ZONE =         -60161.76              SOIL ZONE =         -15739.34
     UNSATURATED ZONE =         -17790.74       UNSATURATED ZONE =          -6027.94
       SATURATED ZONE =         -25511.30         SATURATED ZONE =          -8531.94

 OVERALL BUDGET ERROR =        -679552.14           BUDGET ERROR =             -2.13

  ***WARNING, CUMULATIVE VOLUME OFF > 5%

  PERCENT DISCREPANCY =           -199.98    PERCENT DISCREPANCY =             -0.00



1
 SUMMARY VOLUMETRIC BUDGET FOR GSFLOW 
 DATE: 09 19 1983              CUMULATIVE TIME STEP:    1083
 MODFLOW STRESS PERIOD      2     CURRENT TIME STEP:       4     ITERATIONS:      10

 -----------------------------------------------------------------------------------

   CUMULATIVE VOLUMES               L**3   RATES FOR THIS TIME STEP           L**3/T
   ------------------                      ------------------------

                                     IN                                         IN
                                     --                                         --
        PRECIPITATION =                            PRECIPITATION =                  
           STREAMFLOW =                               STREAMFLOW =                  
     GW BOUNDARY FLOW =                         GW BOUNDARY FLOW =                  
                WELLS =             53.03                  WELLS =             13.21


                                    OUT                                        OUT
                                    ---                                        ---
   EVAPOTRANSPIRATION =         173710.20     EVAPOTRANSPIRATION =          40269.89
           STREAMFLOW =          25134.66             STREAMFLOW =           6135.69
     GW BOUNDARY FLOW =           2864.19       GW BOUNDARY FLOW =            716.16
                WELLS =           1780.15                  WELLS =            441.24

   INFLOWS - OUTFLOWS =        -203436.16     INFLOWS - OUTFLOWS =         -47549.78
             --------                                   --------

 TOTAL STORAGE CHANGE =         476118.21         STORAGE CHANGE =         -47547.55
       --------------                             --------------
         LAND SURFACE =         611495.91           LAND SURFACE =         -15633.65
            SOIL ZONE =         -77513.58              SOIL ZONE =         -17351.82
     UNSATURATED ZONE =         -23851.21       UNSATURATED ZONE =          -6060.48
       SATURATED ZONE =         -34012.91         SATURATED ZONE =          -8501.61

 OVERALL BUDGET ERROR =        -679554.37           BUDGET ERROR =             -2.23

  ***WARNING, CUMULATIVE VOLUME OFF > 5%

  PERCENT DISCREPANCY =           -199.97    PERCENT DISCREPANCY =             -0.00



1
 SUMMARY VOLUMETRIC BUDGET FOR GSFLOW 
 DATE: 09 20 1983              CUMULATIVE TIME STEP:    1084
 MODFLOW STRESS PERIOD      2     CURRENT TIME STEP:       5     ITERATIONS:      10

 -----------------------------------------------------------------------------------

   CUMULATIVE VOLUMES               L**3   RATES FOR THIS TIME STEP           L**3/T
   ------------------                      ------------------------

                                     IN                                         IN
                                     --                                         --
        PRECIPITATION =                            PRECIPITATION =                  
           STREAMFLOW =                               STREAMFLOW =                  
     GW BOUNDARY FLOW =                         GW BOUNDARY FLOW =                  
                WELLS =             66.05                  WELLS =             13.02


                                    OUT                                        OUT
                                    ---                                        ---
   EVAPOTRANSPIRATION =         197056.25     EVAPOTRANSPIRATION =          23346.06
           STREAMFLOW =          30622.06             STREAMFLOW =           5487.40
     GW BOUNDARY FLOW =           3580.39       GW BOUNDARY FLOW =            716.20
                WELLS =           2218.86                  WELLS =            438.71

   INFLOWS - OUTFLOWS =        -233411.50     INFLOWS - OUTFLOWS =         -29975.35
             --------                                   --------

 TOTAL STORAGE CHANGE =         446145.14         STORAGE CHANGE =         -29973.08
       --------------                             --------------
         LAND SURFACE =         606238.68           LAND SURFACE =          -5257.23
            SOIL ZONE =         -87370.58              SOIL ZONE =          -9857.00
     UNSATURATED ZONE =         -30099.86       UNSATURATED ZONE =          -6248.65
       SATURATED ZONE =         -42623.10         SATURATED ZONE =          -8610.19

 OVERALL BUDGET ERROR =        -679556.64           BUDGET ERROR =             -2.27

  ***WARNING, CUMULATIVE VOLUME OFF > 5%

  PERCENT DISCREPANCY =           -199.96    PERCENT DISCREPANCY =             -0.01



1
 SUMMARY VOLUMETRIC BUDGET FOR GSFLOW 
 DATE: 09 21 1983              CUMULATIVE TIME STEP:    1085
 MODFLOW STRESS PERIOD      2     CURRENT TIME STEP:       6     ITERATIONS:      10

 -----------------------------------------------------------------------------------

   CUMULATIVE VOLUMES               L**3   RATES FOR THIS TIME STEP           L**3/T
   ------------------                      ------------------------

                                     IN                                         IN
                                     --                                         --
        PRECIPITATION =                            PRECIPITATION =                  
           STREAMFLOW =                               STREAMFLOW =                  
     GW BOUNDARY FLOW =                         GW BOUNDARY FLOW =                  
                WELLS =             78.82                  WELLS =             12.77


                                    OUT                                        OUT
                                    ---                                        ---
   EVAPOTRANSPIRATION =         224496.02     EVAPOTRANSPIRATION =          27439.77
           STREAMFLOW =          36146.08             STREAMFLOW =           5524.03
     GW BOUNDARY FLOW =           4296.65       GW BOUNDARY FLOW =            716.26
                WELLS =           2655.08                  WELLS =            436.23

   INFLOWS - OUTFLOWS =        -267515.01     INFLOWS - OUTFLOWS =         -34103.51
             --------                                   --------

 TOTAL STORAGE CHANGE =         412044.00         STORAGE CHANGE =         -34101.14
       --------------                             --------------
         LAND SURFACE =         595501.70           LAND SURFACE =         -10736.99
            SOIL ZONE =         -95894.10              SOIL ZONE =          -8523.51
     UNSATURATED ZONE =         -36374.88       UNSATURATED ZONE =          -6275.01
       SATURATED ZONE =         -51188.72         SATURATED ZONE =          -8565.62

 OVERALL BUDGET ERROR =        -679559.01           BUDGET ERROR =             -2.37

  ***WARNING, CUMULATIVE VOLUME OFF > 5%

  PERCENT DISCREPANCY =           -199.95    PERCENT DISCREPANCY =             -0.01



1
 SUMMARY VOLUMETRIC BUDGET FOR GSFLOW 
 DATE: 09 22 1983              CUMULATIVE TIME STEP:    1086
 MODFLOW STRESS PERIOD      2     CURRENT TIME STEP:       7     ITERATIONS:      10

 -----------------------------------------------------------------------------------

   CUMULATIVE VOLUMES               L**3   RATES FOR THIS TIME STEP           L**3/T
   ------------------                      ------------------------

                                     IN                                         IN
                                     --                                         --
        PRECIPITATION =         297317.16          PRECIPITATION =         297317.16
           STREAMFLOW =                               STREAMFLOW =                  
     GW BOUNDARY FLOW =                         GW BOUNDARY FLOW =                  
                WELLS =             91.34                  WELLS =             12.52


                                    OUT                                        OUT
                                    ---                                        ---
   EVAPOTRANSPIRATION =         261482.31     EVAPOTRANSPIRATION =          36986.29
           STREAMFLOW =          47140.77             STREAMFLOW =          10994.69
     GW BOUNDARY FLOW =           5013.38       GW BOUNDARY FLOW =            716.73
                WELLS =           3088.93                  WELLS =            433.84

   INFLOWS - OUTFLOWS =         -19316.89     INFLOWS - OUTFLOWS =         248198.13
             --------                                   --------

 TOTAL STORAGE CHANGE =         660244.23         STORAGE CHANGE =         248200.23
       --------------                             --------------
         LAND SURFACE =         618194.37           LAND SURFACE =          22692.67
            SOIL ZONE =         142726.32              SOIL ZONE =         238620.42
     UNSATURATED ZONE =         -42016.39       UNSATURATED ZONE =          -5641.51
       SATURATED ZONE =         -58660.07         SATURATED ZONE =          -7471.35

 OVERALL BUDGET ERROR =        -679561.12           BUDGET ERROR =             -2.11

  ***WARNING, CUMULATIVE VOLUME OFF > 5%

  PERCENT DISCREPANCY =           -106.65    PERCENT DISCREPANCY =             -0.00



 Number of time steps:      7;  Number of non-convergence:   0
 MF iterations:            70;  SZ iterations:              70
 Average MF iterations: 10.00;  Average SZ iterations:   10.00
 Maximum MF iterations:    10;  Maximum SZ iterations:      10

MF iteration distribution:      0    0    0    0    0    0    0    0    0    7
                                0    0    0    0    0    0    0    0    0    0
                                0    0    0    0    0    0    0    0    0    0
                                0    0    0    0    0    0    0    0    0    0
                                0    0    0    0    0    0    0    0    0    0
                                0    0    0    0    0    0    0    0    0    0
                                0    0    0    0    0    0    0    0    0    0
                                0    0    0    0    0    0    0    0    0    0

SZ computation distribution:    0    0    0    0    0    0    0    0    0    7
                                0    0    0    0    0    0    0    0    0    0
                                0    0    0    0    0    0    0    0    0    0
                                0    0    0    0    0    0    0    0    0    0
                                0    0    0    0    0    0    0    0    0    0
                                0    0    0    0    0    0    0    0    0    0
                                0    0    0    0    0    0    0    0    0    0
                                0    0    0    0    0    0    0    0    0    0

