1
 SUMMARY VOLUMETRIC BUDGET FOR GSFLOW 
 DATE: 10 28 1983              CUMULATIVE TIME STEP:    1122
 MODFLOW STRESS PERIOD      2     CURRENT TIME STEP:       1     ITERATIONS:       9

 -----------------------------------------------------------------------------------

   CUMULATIVE VOLUMES               L**3   RATES FOR THIS TIME STEP           L**3/T
   ------------------                      ------------------------

                                     IN                                         IN
                                     --                                         --
        PRECIPITATION =                            PRECIPITATION =                  
           STREAMFLOW =                               STREAMFLOW =                  
     GW BOUNDARY FLOW =                         GW BOUNDARY FLOW =                  
                WELLS =             22.74                  WELLS =             22.74


                                    OUT                                        OUT
                                    ---                                        ---
   EVAPOTRANSPIRATION =          31114.28     EVAPOTRANSPIRATION =          31114.28
           STREAMFLOW =           4625.35             STREAMFLOW =           4625.35
     GW BOUNDARY FLOW =            717.47       GW BOUNDARY FLOW =            717.47
                WELLS =            874.76                  WELLS =            874.76

   INFLOWS - OUTFLOWS =         -37309.12     INFLOWS - OUTFLOWS =         -37309.12
             --------                                   --------

 TOTAL STORAGE CHANGE =         -37306.56         STORAGE CHANGE =         -37306.56
       --------------                             --------------
         LAND SURFACE =          -2894.35           LAND SURFACE =          -2894.35
            SOIL ZONE =         -19538.65              SOIL ZONE =         -19538.65
     UNSATURATED ZONE =          -5389.05       UNSATURATED ZONE =          -5389.05
       SATURATED ZONE =          -9484.52         SATURATED ZONE =          -9484.52

 OVERALL BUDGET ERROR =             -2.56           BUDGET ERROR =             -2.56


  PERCENT DISCREPANCY =             -0.01    PERCENT DISCREPANCY =             -0.01



1
 SUMMARY VOLUMETRIC BUDGET FOR GSFLOW 
 DATE: 10 29 1983              CUMULATIVE TIME STEP:    1123
 MODFLOW STRESS PERIOD      2     CURRENT TIME STEP:       2     ITERATIONS:       9

 -----------------------------------------------------------------------------------

   CUMULATIVE VOLUMES               L**3   RATES FOR THIS TIME STEP           L**3/T
   ------------------                      ------------------------

                                     IN                                         IN
                                     --                                         --
        PRECIPITATION =         224568.86          PRECIPITATION =         224568.86
           STREAMFLOW =                               STREAMFLOW =                  
     GW BOUNDARY FLOW =                         GW BOUNDARY FLOW =                  
                WELLS =             45.38                  WELLS =             22.64


                                    OUT                                        OUT
                                    ---                                        ---
   EVAPOTRANSPIRATION =          65473.41     EVAPOTRANSPIRATION =          34359.14
           STREAMFLOW =          11532.44             STREAMFLOW =           6907.09
     GW BOUNDARY FLOW =           1435.11       GW BOUNDARY FLOW =            717.64
                WELLS =           1747.34                  WELLS =            872.58

   INFLOWS - OUTFLOWS =         144425.94     INFLOWS - OUTFLOWS =         181735.06
             --------                                   --------

 TOTAL STORAGE CHANGE =         144431.24         STORAGE CHANGE =         181737.80
       --------------                             --------------
         LAND SURFACE =          65978.85           LAND SURFACE =          68873.20
            SOIL ZONE =         107473.78              SOIL ZONE =         127012.43
     UNSATURATED ZONE =         -10511.99       UNSATURATED ZONE =          -5122.94
       SATURATED ZONE =         -18509.40         SATURATED ZONE =          -9024.88

 OVERALL BUDGET ERROR =             -5.30           BUDGET ERROR =             -2.74


  PERCENT DISCREPANCY =             -0.00    PERCENT DISCREPANCY =             -0.00



1
 SUMMARY VOLUMETRIC BUDGET FOR GSFLOW 
 DATE: 10 30 1983              CUMULATIVE TIME STEP:    1124
 MODFLOW STRESS PERIOD      2     CURRENT TIME STEP:       3     ITERATIONS:       9

 -----------------------------------------------------------------------------------

   CUMULATIVE VOLUMES               L**3   RATES FOR THIS TIME STEP           L**3/T
   ------------------                      ------------------------

                                     IN                                         IN
                                     --                                         --
        PRECIPITATION =         922808.49          PRECIPITATION =         698239.62
           STREAMFLOW =                               STREAMFLOW =                  
     GW BOUNDARY FLOW =                         GW BOUNDARY FLOW =                  
                WELLS =             73.44                  WELLS =             28.06


                                    OUT                                        OUT
                                    ---                                        ---
   EVAPOTRANSPIRATION =          97312.24     EVAPOTRANSPIRATION =          31838.83
           STREAMFLOW =          23776.34             STREAMFLOW =          12243.90
     GW BOUNDARY FLOW =           2153.22       GW BOUNDARY FLOW =            718.11
                WELLS =           2258.87                  WELLS =            511.52

   INFLOWS - OUTFLOWS =         797381.26     INFLOWS - OUTFLOWS =         652955.32
             --------                                   --------

 TOTAL STORAGE CHANGE =         797389.14         STORAGE CHANGE =         652957.90
       --------------                             --------------
         LAND SURFACE =         444316.26           LAND SURFACE =         378337.41
            SOIL ZONE =         395009.06              SOIL ZONE =         287535.28
     UNSATURATED ZONE =         -15188.99       UNSATURATED ZONE =          -4677.00
       SATURATED ZONE =         -26747.18         SATURATED ZONE =          -8237.78

 OVERALL BUDGET ERROR =             -7.89           BUDGET ERROR =             -2.58


  PERCENT DISCREPANCY =             -0.00    PERCENT DISCREPANCY =             -0.00



1
 SUMMARY VOLUMETRIC BUDGET FOR GSFLOW 
 DATE: 10 31 1983              CUMULATIVE TIME STEP:    1125
 MODFLOW STRESS PERIOD      2     CURRENT TIME STEP:       4     ITERATIONS:       9

 -----------------------------------------------------------------------------------

   CUMULATIVE VOLUMES               L**3   RATES FOR THIS TIME STEP           L**3/T
   ------------------                      ------------------------

                                     IN                                         IN
                                     --                                         --
        PRECIPITATION =        1714084.90          PRECIPITATION =         791276.41
           STREAMFLOW =                               STREAMFLOW =                  
     GW BOUNDARY FLOW =                         GW BOUNDARY FLOW =                  
                WELLS =            100.21                  WELLS =             26.76


                                    OUT                                        OUT
                                    ---                                        ---
   EVAPOTRANSPIRATION =         127228.39     EVAPOTRANSPIRATION =          29916.14
           STREAMFLOW =          36098.17             STREAMFLOW =          12321.82
     GW BOUNDARY FLOW =           2871.60       GW BOUNDARY FLOW =            718.39
                WELLS =           2768.43                  WELLS =            509.56

   INFLOWS - OUTFLOWS =        1545218.51     INFLOWS - OUTFLOWS =         747837.26
             --------                                   --------

 TOTAL STORAGE CHANGE =        1545228.93         STORAGE CHANGE =         747839.79
       --------------                             --------------
         LAND SURFACE =        1035445.73           LAND SURFACE =         591129.47
            SOIL ZONE =         564738.15              SOIL ZONE =         169729.09
     UNSATURATED ZONE =         -19720.49       UNSATURATED ZONE =          -4531.49
       SATURATED ZONE =         -35234.47         SATURATED ZONE =          -8487.28

 OVERALL BUDGET ERROR =            -10.42           BUDGET ERROR =             -2.53


  PERCENT DISCREPANCY =             -0.00    PERCENT DISCREPANCY =             -0.00



1
 SUMMARY VOLUMETRIC BUDGET FOR GSFLOW 
 DATE: 11 01 1983              CUMULATIVE TIME STEP:    1126
 MODFLOW STRESS PERIOD      2     CURRENT TIME STEP:       5     ITERATIONS:       9

 -----------------------------------------------------------------------------------

   CUMULATIVE VOLUMES               L**3   RATES FOR THIS TIME STEP           L**3/T
   ------------------                      ------------------------

                                     IN                                         IN
                                     --                                         --
        PRECIPITATION =        2216031.57          PRECIPITATION =         501946.67
           STREAMFLOW =                               STREAMFLOW =                  
     GW BOUNDARY FLOW =                         GW BOUNDARY FLOW =                  
                WELLS =            127.86                  WELLS =             27.65


                                    OUT                                        OUT
                                    ---                                        ---
   EVAPOTRANSPIRATION =         145455.29     EVAPOTRANSPIRATION =          18226.90
           STREAMFLOW =          51438.56             STREAMFLOW =          15340.40
     GW BOUNDARY FLOW =           3590.33       GW BOUNDARY FLOW =            718.73
                WELLS =           3278.23                  WELLS =            509.80

   INFLOWS - OUTFLOWS =        2012397.01     INFLOWS - OUTFLOWS =         467178.50
             --------                                   --------

 TOTAL STORAGE CHANGE =        2012410.00         STORAGE CHANGE =         467181.06
       --------------                             --------------
         LAND SURFACE =        1339817.25           LAND SURFACE =         304371.52
            SOIL ZONE =         740393.73              SOIL ZONE =         175655.58
     UNSATURATED ZONE =         -24073.29       UNSATURATED ZONE =          -4352.80
       SATURATED ZONE =         -43727.70         SATURATED ZONE =          -8493.23

 OVERALL BUDGET ERROR =            -12.98           BUDGET ERROR =             -2.56


  PERCENT DISCREPANCY =             -0.00    PERCENT DISCREPANCY =             -0.00



1
 SUMMARY VOLUMETRIC BUDGET FOR GSFLOW 
 DATE: 11 02 1983              CUMULATIVE TIME STEP:    1127
 MODFLOW STRESS PERIOD      2     CURRENT TIME STEP:       6     ITERATIONS:       9

 -----------------------------------------------------------------------------------

   CUMULATIVE VOLUMES               L**3   RATES FOR THIS TIME STEP           L**3/T
   ------------------                      ------------------------

                                     IN                                         IN
                                     --                                         --
        PRECIPITATION =        2356166.79          PRECIPITATION =         140135.23
           STREAMFLOW =                               STREAMFLOW =                  
     GW BOUNDARY FLOW =                         GW BOUNDARY FLOW =                  
                WELLS =            155.50                  WELLS =             27.64


                                    OUT                                        OUT
                                    ---                                        ---
   EVAPOTRANSPIRATION =         165378.48     EVAPOTRANSPIRATION =          19923.20
           STREAMFLOW =          70927.93             STREAMFLOW =          19489.37
     GW BOUNDARY FLOW =           4309.49       GW BOUNDARY FLOW =            719.16
                WELLS =           3787.39                  WELLS =            509.15

   INFLOWS - OUTFLOWS =        2111919.00     INFLOWS - OUTFLOWS =          99521.99
             --------                                   --------

 TOTAL STORAGE CHANGE =        2111934.54         STORAGE CHANGE =          99524.55
       --------------                             --------------
         LAND SURFACE =        1221556.84           LAND SURFACE =        -118260.41
            SOIL ZONE =         970159.89              SOIL ZONE =         229766.16
     UNSATURATED ZONE =         -28036.07       UNSATURATED ZONE =          -3962.78
       SATURATED ZONE =         -51746.12         SATURATED ZONE =          -8018.42

 OVERALL BUDGET ERROR =            -15.54           BUDGET ERROR =             -2.56


  PERCENT DISCREPANCY =             -0.00    PERCENT DISCREPANCY =             -0.00



1
 SUMMARY VOLUMETRIC BUDGET FOR GSFLOW 
 DATE: 11 03 1983              CUMULATIVE TIME STEP:    1128
 MODFLOW STRESS PERIOD      2     CURRENT TIME STEP:       7     ITERATIONS:       9

 -----------------------------------------------------------------------------------

   CUMULATIVE VOLUMES               L**3   RATES FOR THIS TIME STEP           L**3/T
   ------------------                      ------------------------

                                     IN                                         IN
                                     --                                         --
        PRECIPITATION =        2356166.79          PRECIPITATION =                  
           STREAMFLOW =                               STREAMFLOW =                  
     GW BOUNDARY FLOW =                         GW BOUNDARY FLOW =                  
                WELLS =            183.00                  WELLS =             27.49


                                    OUT                                        OUT
                                    ---                                        ---
   EVAPOTRANSPIRATION =         228880.26     EVAPOTRANSPIRATION =          63501.78
           STREAMFLOW =          93252.53             STREAMFLOW =          22324.60
     GW BOUNDARY FLOW =           5029.06       GW BOUNDARY FLOW =            719.57
                WELLS =           4295.78                  WELLS =            508.39

   INFLOWS - OUTFLOWS =        2024892.15     INFLOWS - OUTFLOWS =         -87026.85
             --------                                   --------

 TOTAL STORAGE CHANGE =        2024910.11         STORAGE CHANGE =         -87024.43
       --------------                             --------------
         LAND SURFACE =         971630.43           LAND SURFACE =        -249926.42
            SOIL ZONE =        1144275.37              SOIL ZONE =         174115.48
     UNSATURATED ZONE =         -31335.52       UNSATURATED ZONE =          -3299.45
       SATURATED ZONE =         -59660.17         SATURATED ZONE =          -7914.05

 OVERALL BUDGET ERROR =            -17.96           BUDGET ERROR =             -2.42


  PERCENT DISCREPANCY =             -0.00    PERCENT DISCREPANCY =             -0.00



 Number of time steps:      7;  Number of non-convergence:   0
 MF iterations:            63;  SZ iterations:              63
 Average MF iterations:  9.00;  Average SZ iterations:    9.00
 Maximum MF iterations:     9;  Maximum SZ iterations:       9

MF iteration distribution:      0    0    0    0    0    0    0    0    7    0
                                0    0    0    0    0    0    0    0    0    0
                                0    0    0    0    0    0    0    0    0    0
                                0    0    0    0    0    0    0    0    0    0
                                0    0    0    0    0    0    0    0    0    0
                                0    0    0    0    0    0    0    0    0    0
                                0    0    0    0    0    0    0    0    0    0
                                0    0    0    0    0    0    0    0    0    0

SZ computation distribution:    0    0    0    0    0    0    0    0    7    0
                                0    0    0    0    0    0    0    0    0    0
                                0    0    0    0    0    0    0    0    0    0
                                0    0    0    0    0    0    0    0    0    0
                                0    0    0    0    0    0    0    0    0    0
                                0    0    0    0    0    0    0    0    0    0
                                0    0    0    0    0    0    0    0    0    0
                                0    0    0    0    0    0    0    0    0    0

