1
 SUMMARY VOLUMETRIC BUDGET FOR GSFLOW 
 DATE: 09 15 1983              CUMULATIVE TIME STEP:    1079
 MODFLOW STRESS PERIOD      2     CURRENT TIME STEP:       7     ITERATIONS:      13

 -----------------------------------------------------------------------------------

   CUMULATIVE VOLUMES               L**3   RATES FOR THIS TIME STEP           L**3/T
   ------------------                      ------------------------

                                     IN                                         IN
                                     --                                         --
        PRECIPITATION =                            PRECIPITATION =                  
           STREAMFLOW =                               STREAMFLOW =                  
     GW BOUNDARY FLOW =                         GW BOUNDARY FLOW =                  
                WELLS =            156.37                  WELLS =              8.07


                                    OUT                                        OUT
                                    ---                                        ---
   EVAPOTRANSPIRATION =         367101.94     EVAPOTRANSPIRATION =          46188.09
           STREAMFLOW =          49373.40             STREAMFLOW =           6389.48
     GW BOUNDARY FLOW =           5013.22       GW BOUNDARY FLOW =            715.96
                WELLS =           3912.91                  WELLS =            456.65

   INFLOWS - OUTFLOWS =        -425245.10     INFLOWS - OUTFLOWS =         -53742.11
             --------                                   --------

 TOTAL STORAGE CHANGE =        -425231.81         STORAGE CHANGE =         -53740.04
       --------------                             --------------
         LAND SURFACE =        -131856.89           LAND SURFACE =         -16174.20
            SOIL ZONE =        -195056.02              SOIL ZONE =         -23232.49
     UNSATURATED ZONE =         -39025.04       UNSATURATED ZONE =          -5811.10
       SATURATED ZONE =         -59293.86         SATURATED ZONE =          -8522.25

 OVERALL BUDGET ERROR =            -13.29           BUDGET ERROR =             -2.07


  PERCENT DISCREPANCY =             -0.00    PERCENT DISCREPANCY =             -0.00



