1
 SUMMARY VOLUMETRIC BUDGET FOR GSFLOW 
 DATE: 09 15 1983              CUMULATIVE TIME STEP:    1079
 MODFLOW STRESS PERIOD      2     CURRENT TIME STEP:       7     ITERATIONS:      10

 -----------------------------------------------------------------------------------

   CUMULATIVE VOLUMES               L**3   RATES FOR THIS TIME STEP           L**3/T
   ------------------                      ------------------------

                                     IN                                         IN
                                     --                                         --
        PRECIPITATION =                            PRECIPITATION =                  
           STREAMFLOW =                               STREAMFLOW =                  
     GW BOUNDARY FLOW =                         GW BOUNDARY FLOW =                  
                WELLS =            157.08                  WELLS =             11.67


                                    OUT                                        OUT
                                    ---                                        ---
   EVAPOTRANSPIRATION =         367436.71     EVAPOTRANSPIRATION =          46505.28
           STREAMFLOW =          49335.95             STREAMFLOW =           6408.50
     GW BOUNDARY FLOW =           5013.38       GW BOUNDARY FLOW =            715.98
                WELLS =           3857.79                  WELLS =            449.97

   INFLOWS - OUTFLOWS =        -425486.75     INFLOWS - OUTFLOWS =         -54068.06
             --------                                   --------

 TOTAL STORAGE CHANGE =        -425473.43         STORAGE CHANGE =         -54066.00
       --------------                             --------------
         LAND SURFACE =        -131856.90           LAND SURFACE =         -16174.20
            SOIL ZONE =        -195372.94              SOIL ZONE =         -23546.04
     UNSATURATED ZONE =         -38963.28       UNSATURATED ZONE =          -5804.82
       SATURATED ZONE =         -59280.32         SATURATED ZONE =          -8540.94

 OVERALL BUDGET ERROR =            -13.32           BUDGET ERROR =             -2.06


  PERCENT DISCREPANCY =             -0.00    PERCENT DISCREPANCY =             -0.00



