1
 SUMMARY VOLUMETRIC BUDGET FOR GSFLOW 
 DATE: 09 30 1983              CUMULATIVE TIME STEP:    1094
 MODFLOW STRESS PERIOD      2     CURRENT TIME STEP:       1     ITERATIONS:      10

 -----------------------------------------------------------------------------------

   CUMULATIVE VOLUMES               L**3   RATES FOR THIS TIME STEP           L**3/T
   ------------------                      ------------------------

                                     IN                                         IN
                                     --                                         --
        PRECIPITATION =                            PRECIPITATION =                  
           STREAMFLOW =                               STREAMFLOW =                  
     GW BOUNDARY FLOW =                         GW BOUNDARY FLOW =                  
                WELLS =             18.46                  WELLS =             18.46


                                    OUT                                        OUT
                                    ---                                        ---
   EVAPOTRANSPIRATION =          25105.90     EVAPOTRANSPIRATION =          25105.90
           STREAMFLOW =           9711.86             STREAMFLOW =           9711.86
     GW BOUNDARY FLOW =            717.86       GW BOUNDARY FLOW =            717.86
                WELLS =            892.18                  WELLS =            892.18

   INFLOWS - OUTFLOWS =         -36409.34     INFLOWS - OUTFLOWS =         -36409.34
             --------                                   --------

 TOTAL STORAGE CHANGE =         -36407.26         STORAGE CHANGE =         -36407.26
       --------------                             --------------
         LAND SURFACE =         -28294.44           LAND SURFACE =         -28294.44
            SOIL ZONE =           5022.58              SOIL ZONE =           5022.58
     UNSATURATED ZONE =          -4113.48       UNSATURATED ZONE =          -4113.48
       SATURATED ZONE =          -9021.91         SATURATED ZONE =          -9021.91

 OVERALL BUDGET ERROR =             -2.08           BUDGET ERROR =             -2.08


  PERCENT DISCREPANCY =             -0.01    PERCENT DISCREPANCY =             -0.01



1
 SUMMARY VOLUMETRIC BUDGET FOR GSFLOW 
 DATE: 10 01 1983              CUMULATIVE TIME STEP:    1095
 MODFLOW STRESS PERIOD      2     CURRENT TIME STEP:       2     ITERATIONS:      10

 -----------------------------------------------------------------------------------

   CUMULATIVE VOLUMES               L**3   RATES FOR THIS TIME STEP           L**3/T
   ------------------                      ------------------------

                                     IN                                         IN
                                     --                                         --
        PRECIPITATION =          92690.31          PRECIPITATION =          92690.31
           STREAMFLOW =                               STREAMFLOW =                  
     GW BOUNDARY FLOW =                         GW BOUNDARY FLOW =                  
                WELLS =             37.08                  WELLS =             18.62


                                    OUT                                        OUT
                                    ---                                        ---
   EVAPOTRANSPIRATION =          59166.24     EVAPOTRANSPIRATION =          34060.34
           STREAMFLOW =          21212.26             STREAMFLOW =          11500.40
     GW BOUNDARY FLOW =           1435.86       GW BOUNDARY FLOW =            718.00
                WELLS =           1781.00                  WELLS =            888.82

   INFLOWS - OUTFLOWS =           9132.02     INFLOWS - OUTFLOWS =          45541.36
             --------                                   --------

 TOTAL STORAGE CHANGE =           9136.24         STORAGE CHANGE =          45543.50
       --------------                             --------------
         LAND SURFACE =          18719.63           LAND SURFACE =          47014.07
            SOIL ZONE =          16084.14              SOIL ZONE =          11061.57
     UNSATURATED ZONE =          -7877.44       UNSATURATED ZONE =          -3763.96
       SATURATED ZONE =         -17790.09         SATURATED ZONE =          -8768.18

 OVERALL BUDGET ERROR =             -4.22           BUDGET ERROR =             -2.14


  PERCENT DISCREPANCY =             -0.00    PERCENT DISCREPANCY =             -0.00



1
 SUMMARY VOLUMETRIC BUDGET FOR GSFLOW 
 DATE: 10 02 1983              CUMULATIVE TIME STEP:    1096
 MODFLOW STRESS PERIOD      2     CURRENT TIME STEP:       3     ITERATIONS:      10

 -----------------------------------------------------------------------------------

   CUMULATIVE VOLUMES               L**3   RATES FOR THIS TIME STEP           L**3/T
   ------------------                      ------------------------

                                     IN                                         IN
                                     --                                         --
        PRECIPITATION =         123478.85          PRECIPITATION =          30788.54
           STREAMFLOW =                               STREAMFLOW =                  
     GW BOUNDARY FLOW =                         GW BOUNDARY FLOW =                  
                WELLS =             55.85                  WELLS =             18.76


                                    OUT                                        OUT
                                    ---                                        ---
   EVAPOTRANSPIRATION =          95122.14     EVAPOTRANSPIRATION =          35955.90
           STREAMFLOW =          30868.84             STREAMFLOW =           9656.58
     GW BOUNDARY FLOW =           2153.85       GW BOUNDARY FLOW =            717.99
                WELLS =           2666.60                  WELLS =            885.60

   INFLOWS - OUTFLOWS =          -7276.73     INFLOWS - OUTFLOWS =         -16408.76
             --------                                   --------

 TOTAL STORAGE CHANGE =          -7270.39         STORAGE CHANGE =         -16406.63
       --------------                             --------------
         LAND SURFACE =           -781.45           LAND SURFACE =         -19501.08
            SOIL ZONE =          32225.45              SOIL ZONE =          16141.31
     UNSATURATED ZONE =         -11887.90       UNSATURATED ZONE =          -4010.46
       SATURATED ZONE =         -26826.49         SATURATED ZONE =          -9036.40

 OVERALL BUDGET ERROR =             -6.34           BUDGET ERROR =             -2.12


  PERCENT DISCREPANCY =             -0.00    PERCENT DISCREPANCY =             -0.00



1
 SUMMARY VOLUMETRIC BUDGET FOR GSFLOW 
 DATE: 10 03 1983              CUMULATIVE TIME STEP:    1097
 MODFLOW STRESS PERIOD      2     CURRENT TIME STEP:       4     ITERATIONS:      10

 -----------------------------------------------------------------------------------

   CUMULATIVE VOLUMES               L**3   RATES FOR THIS TIME STEP           L**3/T
   ------------------                      ------------------------

                                     IN                                         IN
                                     --                                         --
        PRECIPITATION =         123478.85          PRECIPITATION =                  
           STREAMFLOW =                               STREAMFLOW =                  
     GW BOUNDARY FLOW =                         GW BOUNDARY FLOW =                  
                WELLS =             74.52                  WELLS =             18.67


                                    OUT                                        OUT
                                    ---                                        ---
   EVAPOTRANSPIRATION =         132473.29     EVAPOTRANSPIRATION =          37351.15
           STREAMFLOW =          39622.00             STREAMFLOW =           8753.16
     GW BOUNDARY FLOW =           2871.78       GW BOUNDARY FLOW =            717.94
                WELLS =           3990.20                  WELLS =           1323.59

   INFLOWS - OUTFLOWS =         -55403.90     INFLOWS - OUTFLOWS =         -48127.16
             --------                                   --------

 TOTAL STORAGE CHANGE =         -55395.49         STORAGE CHANGE =         -48125.10
       --------------                             --------------
         LAND SURFACE =         -36356.30           LAND SURFACE =         -35574.85
            SOIL ZONE =          33377.87              SOIL ZONE =           1152.41
     UNSATURATED ZONE =         -16040.76       UNSATURATED ZONE =          -4152.85
       SATURATED ZONE =         -36376.30         SATURATED ZONE =          -9549.81

 OVERALL BUDGET ERROR =             -8.41           BUDGET ERROR =             -2.07


  PERCENT DISCREPANCY =             -0.00    PERCENT DISCREPANCY =             -0.00



1
 SUMMARY VOLUMETRIC BUDGET FOR GSFLOW 
 DATE: 10 04 1983              CUMULATIVE TIME STEP:    1098
 MODFLOW STRESS PERIOD      2     CURRENT TIME STEP:       5     ITERATIONS:      10

 -----------------------------------------------------------------------------------

   CUMULATIVE VOLUMES               L**3   RATES FOR THIS TIME STEP           L**3/T
   ------------------                      ------------------------

                                     IN                                         IN
                                     --                                         --
        PRECIPITATION =         123478.85          PRECIPITATION =                  
           STREAMFLOW =                               STREAMFLOW =                  
     GW BOUNDARY FLOW =                         GW BOUNDARY FLOW =                  
                WELLS =             93.41                  WELLS =             18.90


                                    OUT                                        OUT
                                    ---                                        ---
   EVAPOTRANSPIRATION =         214888.01     EVAPOTRANSPIRATION =          82414.72
           STREAMFLOW =          48265.83             STREAMFLOW =           8643.83
     GW BOUNDARY FLOW =           3589.70       GW BOUNDARY FLOW =            717.92
                WELLS =           5293.35                  WELLS =           1303.15

   INFLOWS - OUTFLOWS =        -148464.62     INFLOWS - OUTFLOWS =         -93060.72
             --------                                   --------

 TOTAL STORAGE CHANGE =        -148454.08         STORAGE CHANGE =         -93058.60
       --------------                             --------------
         LAND SURFACE =         -58631.20           LAND SURFACE =         -22274.90
            SOIL ZONE =         -23721.27              SOIL ZONE =         -57099.14
     UNSATURATED ZONE =         -20237.06       UNSATURATED ZONE =          -4196.30
       SATURATED ZONE =         -45864.56         SATURATED ZONE =          -9488.25

 OVERALL BUDGET ERROR =            -10.53           BUDGET ERROR =             -2.12


  PERCENT DISCREPANCY =             -0.00    PERCENT DISCREPANCY =             -0.00



1
 SUMMARY VOLUMETRIC BUDGET FOR GSFLOW 
 DATE: 10 05 1983              CUMULATIVE TIME STEP:    1099
 MODFLOW STRESS PERIOD      2     CURRENT TIME STEP:       6     ITERATIONS:       9

 -----------------------------------------------------------------------------------

   CUMULATIVE VOLUMES               L**3   RATES FOR THIS TIME STEP           L**3/T
   ------------------                      ------------------------

                                     IN                                         IN
                                     --                                         --
        PRECIPITATION =         123478.85          PRECIPITATION =                  
           STREAMFLOW =                               STREAMFLOW =                  
     GW BOUNDARY FLOW =                         GW BOUNDARY FLOW =                  
                WELLS =            112.52                  WELLS =             19.11


                                    OUT                                        OUT
                                    ---                                        ---
   EVAPOTRANSPIRATION =         312927.04     EVAPOTRANSPIRATION =          98039.03
           STREAMFLOW =          56166.86             STREAMFLOW =           7901.04
     GW BOUNDARY FLOW =           4307.57       GW BOUNDARY FLOW =            717.87
                WELLS =           6588.19                  WELLS =           1294.84

   INFLOWS - OUTFLOWS =        -256398.29     INFLOWS - OUTFLOWS =        -107933.67
             --------                                   --------

 TOTAL STORAGE CHANGE =        -256385.63         STORAGE CHANGE =        -107931.55
       --------------                             --------------
         LAND SURFACE =         -65448.46           LAND SURFACE =          -6817.27
            SOIL ZONE =        -110928.58              SOIL ZONE =         -87207.31
     UNSATURATED ZONE =         -24612.39       UNSATURATED ZONE =          -4375.34
       SATURATED ZONE =         -55396.19         SATURATED ZONE =          -9531.63

 OVERALL BUDGET ERROR =            -12.66           BUDGET ERROR =             -2.13


  PERCENT DISCREPANCY =             -0.00    PERCENT DISCREPANCY =             -0.00



1
 SUMMARY VOLUMETRIC BUDGET FOR GSFLOW 
 DATE: 10 06 1983              CUMULATIVE TIME STEP:    1100
 MODFLOW STRESS PERIOD      2     CURRENT TIME STEP:       7     ITERATIONS:       9

 -----------------------------------------------------------------------------------

   CUMULATIVE VOLUMES               L**3   RATES FOR THIS TIME STEP           L**3/T
   ------------------                      ------------------------

                                     IN                                         IN
                                     --                                         --
        PRECIPITATION =         123478.85          PRECIPITATION =                  
           STREAMFLOW =                               STREAMFLOW =                  
     GW BOUNDARY FLOW =                         GW BOUNDARY FLOW =                  
                WELLS =            131.82                  WELLS =             19.30


                                    OUT                                        OUT
                                    ---                                        ---
   EVAPOTRANSPIRATION =         402136.77     EVAPOTRANSPIRATION =          89209.73
           STREAMFLOW =          63265.47             STREAMFLOW =           7098.61
     GW BOUNDARY FLOW =           5025.36       GW BOUNDARY FLOW =            717.79
                WELLS =           7876.30                  WELLS =           1288.11

   INFLOWS - OUTFLOWS =        -354693.23     INFLOWS - OUTFLOWS =         -98294.94
             --------                                   --------

 TOTAL STORAGE CHANGE =        -354678.59         STORAGE CHANGE =         -98292.96
       --------------                             --------------
         LAND SURFACE =         -72621.84           LAND SURFACE =          -7173.38
            SOIL ZONE =        -187838.60              SOIL ZONE =         -76910.02
     UNSATURATED ZONE =         -29245.15       UNSATURATED ZONE =          -4632.75
       SATURATED ZONE =         -64973.00         SATURATED ZONE =          -9576.81

 OVERALL BUDGET ERROR =            -14.64           BUDGET ERROR =             -1.98


  PERCENT DISCREPANCY =             -0.00    PERCENT DISCREPANCY =             -0.00



 Number of time steps:      7;  Number of non-convergence:   0
 MF iterations:            68;  SZ iterations:              68
 Average MF iterations:  9.71;  Average SZ iterations:    9.71
 Maximum MF iterations:    10;  Maximum SZ iterations:      10

MF iteration distribution:      0    0    0    0    0    0    0    0    2    5
                                0    0    0    0    0    0    0    0    0    0
                                0    0    0    0    0    0    0    0    0    0
                                0    0    0    0    0    0    0    0    0    0
                                0    0    0    0    0    0    0    0    0    0
                                0    0    0    0    0    0    0    0    0    0
                                0    0    0    0    0    0    0    0    0    0
                                0    0    0    0    0    0    0    0    0    0

SZ computation distribution:    0    0    0    0    0    0    0    0    2    5
                                0    0    0    0    0    0    0    0    0    0
                                0    0    0    0    0    0    0    0    0    0
                                0    0    0    0    0    0    0    0    0    0
                                0    0    0    0    0    0    0    0    0    0
                                0    0    0    0    0    0    0    0    0    0
                                0    0    0    0    0    0    0    0    0    0
                                0    0    0    0    0    0    0    0    0    0

