1
 SUMMARY VOLUMETRIC BUDGET FOR GSFLOW 
 DATE: 11 11 1983              CUMULATIVE TIME STEP:    1136
 MODFLOW STRESS PERIOD      2     CURRENT TIME STEP:       1     ITERATIONS:       9

 -----------------------------------------------------------------------------------

   CUMULATIVE VOLUMES               L**3   RATES FOR THIS TIME STEP           L**3/T
   ------------------                      ------------------------

                                     IN                                         IN
                                     --                                         --
        PRECIPITATION =        1135567.51          PRECIPITATION =        1135567.51
           STREAMFLOW =                               STREAMFLOW =                  
     GW BOUNDARY FLOW =                         GW BOUNDARY FLOW =                  
                WELLS =             26.05                  WELLS =             26.05


                                    OUT                                        OUT
                                    ---                                        ---
   EVAPOTRANSPIRATION =          15041.02     EVAPOTRANSPIRATION =          15041.02
           STREAMFLOW =          78790.59             STREAMFLOW =          78790.59
     GW BOUNDARY FLOW =            724.68       GW BOUNDARY FLOW =            724.68
                WELLS =            502.83                  WELLS =            502.83

   INFLOWS - OUTFLOWS =        1040534.44     INFLOWS - OUTFLOWS =        1040534.44
             --------                                   --------

 TOTAL STORAGE CHANGE =        1040537.50         STORAGE CHANGE =        1040537.50
       --------------                             --------------
         LAND SURFACE =        1000987.44           LAND SURFACE =        1000987.44
            SOIL ZONE =          38080.78              SOIL ZONE =          38080.78
     UNSATURATED ZONE =           8473.71       UNSATURATED ZONE =           8473.71
       SATURATED ZONE =          -7004.43         SATURATED ZONE =          -7004.43

 OVERALL BUDGET ERROR =             -3.07           BUDGET ERROR =             -3.07


  PERCENT DISCREPANCY =             -0.00    PERCENT DISCREPANCY =             -0.00



1
 SUMMARY VOLUMETRIC BUDGET FOR GSFLOW 
 DATE: 11 12 1983              CUMULATIVE TIME STEP:    1137
 MODFLOW STRESS PERIOD      2     CURRENT TIME STEP:       2     ITERATIONS:       9

 -----------------------------------------------------------------------------------

   CUMULATIVE VOLUMES               L**3   RATES FOR THIS TIME STEP           L**3/T
   ------------------                      ------------------------

                                     IN                                         IN
                                     --                                         --
        PRECIPITATION =        1671551.50          PRECIPITATION =         535983.99
           STREAMFLOW =                               STREAMFLOW =                  
     GW BOUNDARY FLOW =                         GW BOUNDARY FLOW =                  
                WELLS =             51.90                  WELLS =             25.85


                                    OUT                                        OUT
                                    ---                                        ---
   EVAPOTRANSPIRATION =          27483.34     EVAPOTRANSPIRATION =          12442.32
           STREAMFLOW =         130636.66             STREAMFLOW =          51846.07
     GW BOUNDARY FLOW =           1449.00       GW BOUNDARY FLOW =            724.32
                WELLS =           1005.01                  WELLS =            502.17

   INFLOWS - OUTFLOWS =        1511029.39     INFLOWS - OUTFLOWS =         470494.95
             --------                                   --------

 TOTAL STORAGE CHANGE =        1511034.76         STORAGE CHANGE =         470497.26
       --------------                             --------------
         LAND SURFACE =        1516348.00           LAND SURFACE =         515360.55
            SOIL ZONE =          -6540.00              SOIL ZONE =         -44620.78
     UNSATURATED ZONE =          16053.51       UNSATURATED ZONE =           7579.80
       SATURATED ZONE =         -14826.75         SATURATED ZONE =          -7822.32

 OVERALL BUDGET ERROR =             -5.38           BUDGET ERROR =             -2.31


  PERCENT DISCREPANCY =             -0.00    PERCENT DISCREPANCY =             -0.00



1
 SUMMARY VOLUMETRIC BUDGET FOR GSFLOW 
 DATE: 11 13 1983              CUMULATIVE TIME STEP:    1138
 MODFLOW STRESS PERIOD      2     CURRENT TIME STEP:       3     ITERATIONS:       9

 -----------------------------------------------------------------------------------

   CUMULATIVE VOLUMES               L**3   RATES FOR THIS TIME STEP           L**3/T
   ------------------                      ------------------------

                                     IN                                         IN
                                     --                                         --
        PRECIPITATION =        2414726.70          PRECIPITATION =         743175.21
           STREAMFLOW =                               STREAMFLOW =                  
     GW BOUNDARY FLOW =                         GW BOUNDARY FLOW =                  
                WELLS =             77.54                  WELLS =             25.65


                                    OUT                                        OUT
                                    ---                                        ---
   EVAPOTRANSPIRATION =          37797.36     EVAPOTRANSPIRATION =          10314.02
           STREAMFLOW =         172621.95             STREAMFLOW =          41985.29
     GW BOUNDARY FLOW =           2172.74       GW BOUNDARY FLOW =            723.75
                WELLS =           1506.53                  WELLS =            501.53

   INFLOWS - OUTFLOWS =        2200705.66     INFLOWS - OUTFLOWS =         689676.27
             --------                                   --------

 TOTAL STORAGE CHANGE =        2200712.87         STORAGE CHANGE =         689678.11
       --------------                             --------------
         LAND SURFACE =        2249209.18           LAND SURFACE =         732861.19
            SOIL ZONE =         -48189.07              SOIL ZONE =         -41649.07
     UNSATURATED ZONE =          22488.12       UNSATURATED ZONE =           6434.60
       SATURATED ZONE =         -22795.36         SATURATED ZONE =          -7968.61

 OVERALL BUDGET ERROR =             -7.21           BUDGET ERROR =             -1.84


  PERCENT DISCREPANCY =             -0.00    PERCENT DISCREPANCY =             -0.00



1
 SUMMARY VOLUMETRIC BUDGET FOR GSFLOW 
 DATE: 11 14 1983              CUMULATIVE TIME STEP:    1139
 MODFLOW STRESS PERIOD      2     CURRENT TIME STEP:       4     ITERATIONS:       9

 -----------------------------------------------------------------------------------

   CUMULATIVE VOLUMES               L**3   RATES FOR THIS TIME STEP           L**3/T
   ------------------                      ------------------------

                                     IN                                         IN
                                     --                                         --
        PRECIPITATION =        2911733.90          PRECIPITATION =         497007.20
           STREAMFLOW =                               STREAMFLOW =                  
     GW BOUNDARY FLOW =                         GW BOUNDARY FLOW =                  
                WELLS =            103.01                  WELLS =             25.47


                                    OUT                                        OUT
                                    ---                                        ---
   EVAPOTRANSPIRATION =          41494.58     EVAPOTRANSPIRATION =           3697.21
           STREAMFLOW =         208538.71             STREAMFLOW =          35916.76
     GW BOUNDARY FLOW =           2895.89       GW BOUNDARY FLOW =            723.14
                WELLS =           2007.45                  WELLS =            500.91

   INFLOWS - OUTFLOWS =        2656900.29     INFLOWS - OUTFLOWS =         456194.63
             --------                                   --------

 TOTAL STORAGE CHANGE =        2656909.01         STORAGE CHANGE =         456196.14
       --------------                             --------------
         LAND SURFACE =        2742519.17           LAND SURFACE =         493309.98
            SOIL ZONE =         -82800.24              SOIL ZONE =         -34611.16
     UNSATURATED ZONE =          28087.88       UNSATURATED ZONE =           5599.76
       SATURATED ZONE =         -30897.80         SATURATED ZONE =          -8102.44

 OVERALL BUDGET ERROR =             -8.72           BUDGET ERROR =             -1.51


  PERCENT DISCREPANCY =             -0.00    PERCENT DISCREPANCY =             -0.00



1
 SUMMARY VOLUMETRIC BUDGET FOR GSFLOW 
 DATE: 11 15 1983              CUMULATIVE TIME STEP:    1140
 MODFLOW STRESS PERIOD      2     CURRENT TIME STEP:       5     ITERATIONS:       8

 -----------------------------------------------------------------------------------

   CUMULATIVE VOLUMES               L**3   RATES FOR THIS TIME STEP           L**3/T
   ------------------                      ------------------------

                                     IN                                         IN
                                     --                                         --
        PRECIPITATION =        2911733.90          PRECIPITATION =                  
           STREAMFLOW =                               STREAMFLOW =                  
     GW BOUNDARY FLOW =                         GW BOUNDARY FLOW =                  
                WELLS =            128.31                  WELLS =             25.30


                                    OUT                                        OUT
                                    ---                                        ---
   EVAPOTRANSPIRATION =          54176.64     EVAPOTRANSPIRATION =          12682.06
           STREAMFLOW =         239976.52             STREAMFLOW =          31437.81
     GW BOUNDARY FLOW =           3618.50       GW BOUNDARY FLOW =            722.61
                WELLS =           2507.78                  WELLS =            500.33

   INFLOWS - OUTFLOWS =        2611582.78     INFLOWS - OUTFLOWS =         -45317.51
             --------                                   --------

 TOTAL STORAGE CHANGE =        2611593.09         STORAGE CHANGE =         -45315.92
       --------------                             --------------
         LAND SURFACE =        2729838.19           LAND SURFACE =         -12680.97
            SOIL ZONE =        -111904.71              SOIL ZONE =         -29104.47
     UNSATURATED ZONE =          32687.13       UNSATURATED ZONE =           4599.25
       SATURATED ZONE =         -39027.52         SATURATED ZONE =          -8129.72

 OVERALL BUDGET ERROR =            -10.31           BUDGET ERROR =             -1.59


  PERCENT DISCREPANCY =             -0.00    PERCENT DISCREPANCY =             -0.00



1
 SUMMARY VOLUMETRIC BUDGET FOR GSFLOW 
 DATE: 11 16 1983              CUMULATIVE TIME STEP:    1141
 MODFLOW STRESS PERIOD      2     CURRENT TIME STEP:       6     ITERATIONS:       9

 -----------------------------------------------------------------------------------

   CUMULATIVE VOLUMES               L**3   RATES FOR THIS TIME STEP           L**3/T
   ------------------                      ------------------------

                                     IN                                         IN
                                     --                                         --
        PRECIPITATION =        3795880.19          PRECIPITATION =         884146.28
           STREAMFLOW =                               STREAMFLOW =                  
     GW BOUNDARY FLOW =                         GW BOUNDARY FLOW =                  
                WELLS =            151.77                  WELLS =             23.46


                                    OUT                                        OUT
                                    ---                                        ---
   EVAPOTRANSPIRATION =          67647.04     EVAPOTRANSPIRATION =          13470.40
           STREAMFLOW =         296081.43             STREAMFLOW =          56104.91
     GW BOUNDARY FLOW =           4341.78       GW BOUNDARY FLOW =            723.29
                WELLS =           3458.47                  WELLS =            950.69

   INFLOWS - OUTFLOWS =        3424503.23     INFLOWS - OUTFLOWS =         812920.45
             --------                                   --------

 TOTAL STORAGE CHANGE =        3424515.47         STORAGE CHANGE =         812922.38
       --------------                             --------------
         LAND SURFACE =        3463691.62           LAND SURFACE =         733853.43
            SOIL ZONE =         -32083.08              SOIL ZONE =          79821.63
     UNSATURATED ZONE =          39575.49       UNSATURATED ZONE =           6888.36
       SATURATED ZONE =         -46668.56         SATURATED ZONE =          -7641.04

 OVERALL BUDGET ERROR =            -12.25           BUDGET ERROR =             -1.93


  PERCENT DISCREPANCY =             -0.00    PERCENT DISCREPANCY =             -0.00



1
 SUMMARY VOLUMETRIC BUDGET FOR GSFLOW 
 DATE: 11 17 1983              CUMULATIVE TIME STEP:    1142
 MODFLOW STRESS PERIOD      2     CURRENT TIME STEP:       7     ITERATIONS:       8

 -----------------------------------------------------------------------------------

   CUMULATIVE VOLUMES               L**3   RATES FOR THIS TIME STEP           L**3/T
   ------------------                      ------------------------

                                     IN                                         IN
                                     --                                         --
        PRECIPITATION =        5385118.56          PRECIPITATION =        1589238.37
           STREAMFLOW =                               STREAMFLOW =                  
     GW BOUNDARY FLOW =                         GW BOUNDARY FLOW =                  
                WELLS =            175.79                  WELLS =             24.03


                                    OUT                                        OUT
                                    ---                                        ---
   EVAPOTRANSPIRATION =          80630.47     EVAPOTRANSPIRATION =          12983.43
           STREAMFLOW =         348167.81             STREAMFLOW =          52086.38
     GW BOUNDARY FLOW =           5065.29       GW BOUNDARY FLOW =            723.51
                WELLS =           4392.13                  WELLS =            933.66

   INFLOWS - OUTFLOWS =        4947038.65     INFLOWS - OUTFLOWS =        1522535.43
             --------                                   --------

 TOTAL STORAGE CHANGE =        4947052.69         STORAGE CHANGE =        1522537.21
       --------------                             --------------
         LAND SURFACE =        4987854.28           LAND SURFACE =        1524162.66
            SOIL ZONE =         -32517.21              SOIL ZONE =           -434.13
     UNSATURATED ZONE =          46439.12       UNSATURATED ZONE =           6863.63
       SATURATED ZONE =         -54723.50         SATURATED ZONE =          -8054.94

 OVERALL BUDGET ERROR =            -14.03           BUDGET ERROR =             -1.79


  PERCENT DISCREPANCY =             -0.00    PERCENT DISCREPANCY =             -0.00



 Number of time steps:      7;  Number of non-convergence:   0
 MF iterations:            61;  SZ iterations:              61
 Average MF iterations:  8.71;  Average SZ iterations:    8.71
 Maximum MF iterations:     9;  Maximum SZ iterations:       9

MF iteration distribution:      0    0    0    0    0    0    0    2    5    0
                                0    0    0    0    0    0    0    0    0    0
                                0    0    0    0    0    0    0    0    0    0
                                0    0    0    0    0    0    0    0    0    0
                                0    0    0    0    0    0    0    0    0    0
                                0    0    0    0    0    0    0    0    0    0
                                0    0    0    0    0    0    0    0    0    0
                                0    0    0    0    0    0    0    0    0    0

SZ computation distribution:    0    0    0    0    0    0    0    2    5    0
                                0    0    0    0    0    0    0    0    0    0
                                0    0    0    0    0    0    0    0    0    0
                                0    0    0    0    0    0    0    0    0    0
                                0    0    0    0    0    0    0    0    0    0
                                0    0    0    0    0    0    0    0    0    0
                                0    0    0    0    0    0    0    0    0    0
                                0    0    0    0    0    0    0    0    0    0

