1
 SUMMARY VOLUMETRIC BUDGET FOR GSFLOW 
 DATE: 11 04 1983              CUMULATIVE TIME STEP:    1129
 MODFLOW STRESS PERIOD      2     CURRENT TIME STEP:       1     ITERATIONS:       9

 -----------------------------------------------------------------------------------

   CUMULATIVE VOLUMES               L**3   RATES FOR THIS TIME STEP           L**3/T
   ------------------                      ------------------------

                                     IN                                         IN
                                     --                                         --
        PRECIPITATION =                            PRECIPITATION =                  
           STREAMFLOW =                               STREAMFLOW =                  
     GW BOUNDARY FLOW =                         GW BOUNDARY FLOW =                  
                WELLS =             27.33                  WELLS =             27.33


                                    OUT                                        OUT
                                    ---                                        ---
   EVAPOTRANSPIRATION =          54982.58     EVAPOTRANSPIRATION =          54982.58
           STREAMFLOW =          29008.81             STREAMFLOW =          29008.81
     GW BOUNDARY FLOW =            720.13       GW BOUNDARY FLOW =            720.13
                WELLS =            507.64                  WELLS =            507.64

   INFLOWS - OUTFLOWS =         -85191.83     INFLOWS - OUTFLOWS =         -85191.83
             --------                                   --------

 TOTAL STORAGE CHANGE =         -85189.27         STORAGE CHANGE =         -85189.27
       --------------                             --------------
         LAND SURFACE =        -244596.42           LAND SURFACE =        -244596.42
            SOIL ZONE =         169477.79              SOIL ZONE =         169477.79
     UNSATURATED ZONE =          -2567.45       UNSATURATED ZONE =          -2567.45
       SATURATED ZONE =          -7503.19         SATURATED ZONE =          -7503.19

 OVERALL BUDGET ERROR =             -2.56           BUDGET ERROR =             -2.56


  PERCENT DISCREPANCY =             -0.00    PERCENT DISCREPANCY =             -0.00



1
 SUMMARY VOLUMETRIC BUDGET FOR GSFLOW 
 DATE: 11 05 1983              CUMULATIVE TIME STEP:    1130
 MODFLOW STRESS PERIOD      2     CURRENT TIME STEP:       2     ITERATIONS:       9

 -----------------------------------------------------------------------------------

   CUMULATIVE VOLUMES               L**3   RATES FOR THIS TIME STEP           L**3/T
   ------------------                      ------------------------

                                     IN                                         IN
                                     --                                         --
        PRECIPITATION =                            PRECIPITATION =                  
           STREAMFLOW =                               STREAMFLOW =                  
     GW BOUNDARY FLOW =                         GW BOUNDARY FLOW =                  
                WELLS =             54.48                  WELLS =             27.15


                                    OUT                                        OUT
                                    ---                                        ---
   EVAPOTRANSPIRATION =          96412.81     EVAPOTRANSPIRATION =          41430.24
           STREAMFLOW =          57578.23             STREAMFLOW =          28569.43
     GW BOUNDARY FLOW =           1440.61       GW BOUNDARY FLOW =            720.48
                WELLS =           1014.54                  WELLS =            506.90

   INFLOWS - OUTFLOWS =        -156391.71     INFLOWS - OUTFLOWS =         -71199.88
             --------                                   --------

 TOTAL STORAGE CHANGE =        -156386.59         STORAGE CHANGE =         -71197.31
       --------------                             --------------
         LAND SURFACE =        -408946.69           LAND SURFACE =        -164350.26
            SOIL ZONE =         272271.37              SOIL ZONE =         102793.59
     UNSATURATED ZONE =          -4622.51       UNSATURATED ZONE =          -2055.06
       SATURATED ZONE =         -15088.76         SATURATED ZONE =          -7585.58

 OVERALL BUDGET ERROR =             -5.12           BUDGET ERROR =             -2.56


  PERCENT DISCREPANCY =             -0.00    PERCENT DISCREPANCY =             -0.00



1
 SUMMARY VOLUMETRIC BUDGET FOR GSFLOW 
 DATE: 11 06 1983              CUMULATIVE TIME STEP:    1131
 MODFLOW STRESS PERIOD      2     CURRENT TIME STEP:       3     ITERATIONS:       9

 -----------------------------------------------------------------------------------

   CUMULATIVE VOLUMES               L**3   RATES FOR THIS TIME STEP           L**3/T
   ------------------                      ------------------------

                                     IN                                         IN
                                     --                                         --
        PRECIPITATION =         200699.93          PRECIPITATION =         200699.93
           STREAMFLOW =                               STREAMFLOW =                  
     GW BOUNDARY FLOW =                         GW BOUNDARY FLOW =                  
                WELLS =             81.47                  WELLS =             26.99


                                    OUT                                        OUT
                                    ---                                        ---
   EVAPOTRANSPIRATION =         126413.88     EVAPOTRANSPIRATION =          30001.07
           STREAMFLOW =          98648.81             STREAMFLOW =          41070.58
     GW BOUNDARY FLOW =           2161.81       GW BOUNDARY FLOW =            721.20
                WELLS =           1520.73                  WELLS =            506.19

   INFLOWS - OUTFLOWS =         -27963.83     INFLOWS - OUTFLOWS =         128427.88
             --------                                   --------

 TOTAL STORAGE CHANGE =         -27956.04         STORAGE CHANGE =         128430.55
       --------------                             --------------
         LAND SURFACE =        -452594.18           LAND SURFACE =         -43647.50
            SOIL ZONE =         452064.80              SOIL ZONE =         179793.42
     UNSATURATED ZONE =          -5366.41       UNSATURATED ZONE =           -743.90
       SATURATED ZONE =         -22060.24         SATURATED ZONE =          -6971.48

 OVERALL BUDGET ERROR =             -7.79           BUDGET ERROR =             -2.67


  PERCENT DISCREPANCY =             -0.00    PERCENT DISCREPANCY =             -0.00



1
 SUMMARY VOLUMETRIC BUDGET FOR GSFLOW 
 DATE: 11 07 1983              CUMULATIVE TIME STEP:    1132
 MODFLOW STRESS PERIOD      2     CURRENT TIME STEP:       4     ITERATIONS:       9

 -----------------------------------------------------------------------------------

   CUMULATIVE VOLUMES               L**3   RATES FOR THIS TIME STEP           L**3/T
   ------------------                      ------------------------

                                     IN                                         IN
                                     --                                         --
        PRECIPITATION =         427438.19          PRECIPITATION =         226738.25
           STREAMFLOW =                               STREAMFLOW =                  
     GW BOUNDARY FLOW =                         GW BOUNDARY FLOW =                  
                WELLS =            108.29                  WELLS =             26.82


                                    OUT                                        OUT
                                    ---                                        ---
   EVAPOTRANSPIRATION =         152730.26     EVAPOTRANSPIRATION =          26316.38
           STREAMFLOW =         152455.85             STREAMFLOW =          53807.04
     GW BOUNDARY FLOW =           2883.93       GW BOUNDARY FLOW =            722.12
                WELLS =           2026.24                  WELLS =            505.52

   INFLOWS - OUTFLOWS =         117450.19     INFLOWS - OUTFLOWS =         145414.02
             --------                                   --------

 TOTAL STORAGE CHANGE =         117460.65         STORAGE CHANGE =         145416.69
       --------------                             --------------
         LAND SURFACE =        -500900.38           LAND SURFACE =         -48306.20
            SOIL ZONE =         649642.15              SOIL ZONE =         197577.35
     UNSATURATED ZONE =          -2750.66       UNSATURATED ZONE =           2615.75
       SATURATED ZONE =         -28530.45         SATURATED ZONE =          -6470.21

 OVERALL BUDGET ERROR =            -10.46           BUDGET ERROR =             -2.67


  PERCENT DISCREPANCY =             -0.00    PERCENT DISCREPANCY =             -0.00



1
 SUMMARY VOLUMETRIC BUDGET FOR GSFLOW 
 DATE: 11 08 1983              CUMULATIVE TIME STEP:    1133
 MODFLOW STRESS PERIOD      2     CURRENT TIME STEP:       5     ITERATIONS:       9

 -----------------------------------------------------------------------------------

   CUMULATIVE VOLUMES               L**3   RATES FOR THIS TIME STEP           L**3/T
   ------------------                      ------------------------

                                     IN                                         IN
                                     --                                         --
        PRECIPITATION =         427438.19          PRECIPITATION =                  
           STREAMFLOW =                               STREAMFLOW =                  
     GW BOUNDARY FLOW =                         GW BOUNDARY FLOW =                  
                WELLS =            134.93                  WELLS =             26.64


                                    OUT                                        OUT
                                    ---                                        ---
   EVAPOTRANSPIRATION =         165883.20     EVAPOTRANSPIRATION =          13152.94
           STREAMFLOW =         185770.64             STREAMFLOW =          33314.79
     GW BOUNDARY FLOW =           3605.85       GW BOUNDARY FLOW =            721.92
                WELLS =           2531.06                  WELLS =            504.82

   INFLOWS - OUTFLOWS =          69782.37     INFLOWS - OUTFLOWS =         -47667.82
             --------                                   --------

 TOTAL STORAGE CHANGE =          69795.25         STORAGE CHANGE =         -47665.40
       --------------                             --------------
         LAND SURFACE =        -513974.72           LAND SURFACE =         -13074.33
            SOIL ZONE =         621116.31              SOIL ZONE =         -28525.84
     UNSATURATED ZONE =           -700.71       UNSATURATED ZONE =           2049.95
       SATURATED ZONE =         -36645.64         SATURATED ZONE =          -8115.19

 OVERALL BUDGET ERROR =            -12.88           BUDGET ERROR =             -2.41


  PERCENT DISCREPANCY =             -0.00    PERCENT DISCREPANCY =             -0.01



1
 SUMMARY VOLUMETRIC BUDGET FOR GSFLOW 
 DATE: 11 09 1983              CUMULATIVE TIME STEP:    1134
 MODFLOW STRESS PERIOD      2     CURRENT TIME STEP:       6     ITERATIONS:       9

 -----------------------------------------------------------------------------------

   CUMULATIVE VOLUMES               L**3   RATES FOR THIS TIME STEP           L**3/T
   ------------------                      ------------------------

                                     IN                                         IN
                                     --                                         --
        PRECIPITATION =         623322.54          PRECIPITATION =         195884.35
           STREAMFLOW =                               STREAMFLOW =                  
     GW BOUNDARY FLOW =                         GW BOUNDARY FLOW =                  
                WELLS =            161.37                  WELLS =             26.44


                                    OUT                                        OUT
                                    ---                                        ---
   EVAPOTRANSPIRATION =         179353.28     EVAPOTRANSPIRATION =          13470.08
           STREAMFLOW =         220647.40             STREAMFLOW =          34876.76
     GW BOUNDARY FLOW =           4327.71       GW BOUNDARY FLOW =            721.86
                WELLS =           3035.17                  WELLS =            504.11

   INFLOWS - OUTFLOWS =         216120.34     INFLOWS - OUTFLOWS =         146337.97
             --------                                   --------

 TOTAL STORAGE CHANGE =         216135.73         STORAGE CHANGE =         146340.48
       --------------                             --------------
         LAND SURFACE =        -375671.33           LAND SURFACE =         138303.39
            SOIL ZONE =         635035.44              SOIL ZONE =          13919.13
     UNSATURATED ZONE =           1312.29       UNSATURATED ZONE =           2012.99
       SATURATED ZONE =         -44540.67         SATURATED ZONE =          -7895.03

 OVERALL BUDGET ERROR =            -15.39           BUDGET ERROR =             -2.51


  PERCENT DISCREPANCY =             -0.00    PERCENT DISCREPANCY =             -0.00



1
 SUMMARY VOLUMETRIC BUDGET FOR GSFLOW 
 DATE: 11 10 1983              CUMULATIVE TIME STEP:    1135
 MODFLOW STRESS PERIOD      2     CURRENT TIME STEP:       7     ITERATIONS:       8

 -----------------------------------------------------------------------------------

   CUMULATIVE VOLUMES               L**3   RATES FOR THIS TIME STEP           L**3/T
   ------------------                      ------------------------

                                     IN                                         IN
                                     --                                         --
        PRECIPITATION =        1961472.48          PRECIPITATION =        1338149.95
           STREAMFLOW =                               STREAMFLOW =                  
     GW BOUNDARY FLOW =                         GW BOUNDARY FLOW =                  
                WELLS =            187.62                  WELLS =             26.25


                                    OUT                                        OUT
                                    ---                                        ---
   EVAPOTRANSPIRATION =         195825.44     EVAPOTRANSPIRATION =          16472.16
           STREAMFLOW =         310499.72             STREAMFLOW =          89852.32
     GW BOUNDARY FLOW =           5051.53       GW BOUNDARY FLOW =            723.82
                WELLS =           3538.65                  WELLS =            503.47

   INFLOWS - OUTFLOWS =        1446744.76     INFLOWS - OUTFLOWS =        1230624.42
             --------                                   --------

 TOTAL STORAGE CHANGE =        1446762.73         STORAGE CHANGE =        1230627.00
       --------------                             --------------
         LAND SURFACE =         661129.49           LAND SURFACE =        1036800.81
            SOIL ZONE =         827979.57              SOIL ZONE =         192944.13
     UNSATURATED ZONE =           8334.73       UNSATURATED ZONE =           7022.45
       SATURATED ZONE =         -50681.05         SATURATED ZONE =          -6140.38

 OVERALL BUDGET ERROR =            -17.97           BUDGET ERROR =             -2.58


  PERCENT DISCREPANCY =             -0.00    PERCENT DISCREPANCY =             -0.00



 Number of time steps:      7;  Number of non-convergence:   0
 MF iterations:            62;  SZ iterations:              62
 Average MF iterations:  8.86;  Average SZ iterations:    8.86
 Maximum MF iterations:     9;  Maximum SZ iterations:       9

MF iteration distribution:      0    0    0    0    0    0    0    1    6    0
                                0    0    0    0    0    0    0    0    0    0
                                0    0    0    0    0    0    0    0    0    0
                                0    0    0    0    0    0    0    0    0    0
                                0    0    0    0    0    0    0    0    0    0
                                0    0    0    0    0    0    0    0    0    0
                                0    0    0    0    0    0    0    0    0    0
                                0    0    0    0    0    0    0    0    0    0

SZ computation distribution:    0    0    0    0    0    0    0    1    6    0
                                0    0    0    0    0    0    0    0    0    0
                                0    0    0    0    0    0    0    0    0    0
                                0    0    0    0    0    0    0    0    0    0
                                0    0    0    0    0    0    0    0    0    0
                                0    0    0    0    0    0    0    0    0    0
                                0    0    0    0    0    0    0    0    0    0
                                0    0    0    0    0    0    0    0    0    0

