1
 SUMMARY VOLUMETRIC BUDGET FOR GSFLOW 
 DATE: 10 14 1983              CUMULATIVE TIME STEP:    1108
 MODFLOW STRESS PERIOD      2     CURRENT TIME STEP:       1     ITERATIONS:       9

 -----------------------------------------------------------------------------------

   CUMULATIVE VOLUMES               L**3   RATES FOR THIS TIME STEP           L**3/T
   ------------------                      ------------------------

                                     IN                                         IN
                                     --                                         --
        PRECIPITATION =                            PRECIPITATION =                  
           STREAMFLOW =                               STREAMFLOW =                  
     GW BOUNDARY FLOW =                         GW BOUNDARY FLOW =                  
                WELLS =             21.36                  WELLS =             21.36


                                    OUT                                        OUT
                                    ---                                        ---
   EVAPOTRANSPIRATION =          16315.80     EVAPOTRANSPIRATION =          16315.80
           STREAMFLOW =           4418.12             STREAMFLOW =           4418.12
     GW BOUNDARY FLOW =            717.35       GW BOUNDARY FLOW =            717.35
                WELLS =           1292.80                  WELLS =           1292.80

   INFLOWS - OUTFLOWS =         -22722.71     INFLOWS - OUTFLOWS =         -22722.71
             --------                                   --------

 TOTAL STORAGE CHANGE =         431473.11         STORAGE CHANGE =         431473.11
       --------------                             --------------
         LAND SURFACE =         451899.72           LAND SURFACE =         451899.72
            SOIL ZONE =          -4855.91              SOIL ZONE =          -4855.91
     UNSATURATED ZONE =          -5811.22       UNSATURATED ZONE =          -5811.22
       SATURATED ZONE =          -9759.49         SATURATED ZONE =          -9759.49

 OVERALL BUDGET ERROR =        -454195.81           BUDGET ERROR =        -454195.81

  ***WARNING, CUMULATIVE VOLUME OFF > 5%
  ***CAUTION, FLUX RATES OFF > 10%

  PERCENT DISCREPANCY =           -199.98    PERCENT DISCREPANCY =           -199.98



1
 SUMMARY VOLUMETRIC BUDGET FOR GSFLOW 
 DATE: 10 15 1983              CUMULATIVE TIME STEP:    1109
 MODFLOW STRESS PERIOD      2     CURRENT TIME STEP:       2     ITERATIONS:       9

 -----------------------------------------------------------------------------------

   CUMULATIVE VOLUMES               L**3   RATES FOR THIS TIME STEP           L**3/T
   ------------------                      ------------------------

                                     IN                                         IN
                                     --                                         --
        PRECIPITATION =                            PRECIPITATION =                  
           STREAMFLOW =                               STREAMFLOW =                  
     GW BOUNDARY FLOW =                         GW BOUNDARY FLOW =                  
                WELLS =             42.74                  WELLS =             21.39


                                    OUT                                        OUT
                                    ---                                        ---
   EVAPOTRANSPIRATION =          30201.27     EVAPOTRANSPIRATION =          13885.47
           STREAMFLOW =           8675.48             STREAMFLOW =           4257.36
     GW BOUNDARY FLOW =           1434.67       GW BOUNDARY FLOW =            717.32
                WELLS =           2580.88                  WELLS =           1288.08

   INFLOWS - OUTFLOWS =         -42849.56     INFLOWS - OUTFLOWS =         -20126.85
             --------                                   --------

 TOTAL STORAGE CHANGE =         411348.78         STORAGE CHANGE =         -20124.33
       --------------                             --------------
         LAND SURFACE =         451899.72           LAND SURFACE =                  
            SOIL ZONE =          -9354.78              SOIL ZONE =          -4498.88
     UNSATURATED ZONE =         -11701.14       UNSATURATED ZONE =          -5889.92
       SATURATED ZONE =         -19495.02         SATURATED ZONE =          -9735.53

 OVERALL BUDGET ERROR =        -454198.34           BUDGET ERROR =             -2.52

  ***WARNING, CUMULATIVE VOLUME OFF > 5%

  PERCENT DISCREPANCY =           -199.96    PERCENT DISCREPANCY =             -0.01



1
 SUMMARY VOLUMETRIC BUDGET FOR GSFLOW 
 DATE: 10 16 1983              CUMULATIVE TIME STEP:    1110
 MODFLOW STRESS PERIOD      2     CURRENT TIME STEP:       3     ITERATIONS:       9

 -----------------------------------------------------------------------------------

   CUMULATIVE VOLUMES               L**3   RATES FOR THIS TIME STEP           L**3/T
   ------------------                      ------------------------

                                     IN                                         IN
                                     --                                         --
        PRECIPITATION =                            PRECIPITATION =                  
           STREAMFLOW =                               STREAMFLOW =                  
     GW BOUNDARY FLOW =                         GW BOUNDARY FLOW =                  
                WELLS =             64.16                  WELLS =             21.42


                                    OUT                                        OUT
                                    ---                                        ---
   EVAPOTRANSPIRATION =          47602.28     EVAPOTRANSPIRATION =          17401.02
           STREAMFLOW =          12837.33             STREAMFLOW =           4161.85
     GW BOUNDARY FLOW =           2151.97       GW BOUNDARY FLOW =            717.30
                WELLS =           3864.44                  WELLS =           1283.55

   INFLOWS - OUTFLOWS =         -66391.86     INFLOWS - OUTFLOWS =         -23542.30
             --------                                   --------

 TOTAL STORAGE CHANGE =         387809.06         STORAGE CHANGE =         -23539.72
       --------------                             --------------
         LAND SURFACE =         451899.72           LAND SURFACE =                  
            SOIL ZONE =         -17243.49              SOIL ZONE =          -7888.71
     UNSATURATED ZONE =         -17635.94       UNSATURATED ZONE =          -5934.80
       SATURATED ZONE =         -29211.22         SATURATED ZONE =          -9716.20

 OVERALL BUDGET ERROR =        -454200.92           BUDGET ERROR =             -2.59

  ***WARNING, CUMULATIVE VOLUME OFF > 5%

  PERCENT DISCREPANCY =           -199.94    PERCENT DISCREPANCY =             -0.01



1
 SUMMARY VOLUMETRIC BUDGET FOR GSFLOW 
 DATE: 10 17 1983              CUMULATIVE TIME STEP:    1111
 MODFLOW STRESS PERIOD      2     CURRENT TIME STEP:       4     ITERATIONS:       9

 -----------------------------------------------------------------------------------

   CUMULATIVE VOLUMES               L**3   RATES FOR THIS TIME STEP           L**3/T
   ------------------                      ------------------------

                                     IN                                         IN
                                     --                                         --
        PRECIPITATION =                            PRECIPITATION =                  
           STREAMFLOW =                               STREAMFLOW =                  
     GW BOUNDARY FLOW =                         GW BOUNDARY FLOW =                  
                WELLS =             85.61                  WELLS =             21.45


                                    OUT                                        OUT
                                    ---                                        ---
   EVAPOTRANSPIRATION =          70449.90     EVAPOTRANSPIRATION =          22847.61
           STREAMFLOW =          16930.41             STREAMFLOW =           4093.07
     GW BOUNDARY FLOW =           2869.25       GW BOUNDARY FLOW =            717.28
                WELLS =           5143.64                  WELLS =           1279.21

   INFLOWS - OUTFLOWS =         -95307.58     INFLOWS - OUTFLOWS =         -28915.72
             --------                                   --------

 TOTAL STORAGE CHANGE =         358896.01         STORAGE CHANGE =         -28913.06
       --------------                             --------------
         LAND SURFACE =         451899.72           LAND SURFACE =                  
            SOIL ZONE =         -30491.00              SOIL ZONE =         -13247.51
     UNSATURATED ZONE =         -23607.87       UNSATURATED ZONE =          -5971.93
       SATURATED ZONE =         -38904.85         SATURATED ZONE =          -9693.62

 OVERALL BUDGET ERROR =        -454203.59           BUDGET ERROR =             -2.66

  ***WARNING, CUMULATIVE VOLUME OFF > 5%

  PERCENT DISCREPANCY =           -199.92    PERCENT DISCREPANCY =             -0.01



1
 SUMMARY VOLUMETRIC BUDGET FOR GSFLOW 
 DATE: 10 18 1983              CUMULATIVE TIME STEP:    1112
 MODFLOW STRESS PERIOD      2     CURRENT TIME STEP:       5     ITERATIONS:       9

 -----------------------------------------------------------------------------------

   CUMULATIVE VOLUMES               L**3   RATES FOR THIS TIME STEP           L**3/T
   ------------------                      ------------------------

                                     IN                                         IN
                                     --                                         --
        PRECIPITATION =                            PRECIPITATION =                  
           STREAMFLOW =                               STREAMFLOW =                  
     GW BOUNDARY FLOW =                         GW BOUNDARY FLOW =                  
                WELLS =            107.09                  WELLS =             21.48


                                    OUT                                        OUT
                                    ---                                        ---
   EVAPOTRANSPIRATION =         106762.55     EVAPOTRANSPIRATION =          36312.65
           STREAMFLOW =          20972.99             STREAMFLOW =           4042.59
     GW BOUNDARY FLOW =           3586.52       GW BOUNDARY FLOW =            717.27
                WELLS =           6418.67                  WELLS =           1275.03

   INFLOWS - OUTFLOWS =        -137633.64     INFLOWS - OUTFLOWS =         -42326.06
             --------                                   --------

 TOTAL STORAGE CHANGE =         316572.65         STORAGE CHANGE =         -42323.35
       --------------                             --------------
         LAND SURFACE =         451719.67           LAND SURFACE =           -180.05
            SOIL ZONE =         -56964.22              SOIL ZONE =         -26473.22
     UNSATURATED ZONE =         -29616.95       UNSATURATED ZONE =          -6009.08
       SATURATED ZONE =         -48565.85         SATURATED ZONE =          -9661.00

 OVERALL BUDGET ERROR =        -454206.29           BUDGET ERROR =             -2.71

  ***WARNING, CUMULATIVE VOLUME OFF > 5%

  PERCENT DISCREPANCY =           -199.91    PERCENT DISCREPANCY =             -0.01



1
 SUMMARY VOLUMETRIC BUDGET FOR GSFLOW 
 DATE: 10 19 1983              CUMULATIVE TIME STEP:    1113
 MODFLOW STRESS PERIOD      2     CURRENT TIME STEP:       6     ITERATIONS:       9

 -----------------------------------------------------------------------------------

   CUMULATIVE VOLUMES               L**3   RATES FOR THIS TIME STEP           L**3/T
   ------------------                      ------------------------

                                     IN                                         IN
                                     --                                         --
        PRECIPITATION =                            PRECIPITATION =                  
           STREAMFLOW =                               STREAMFLOW =                  
     GW BOUNDARY FLOW =                         GW BOUNDARY FLOW =                  
                WELLS =            128.60                  WELLS =             21.51


                                    OUT                                        OUT
                                    ---                                        ---
   EVAPOTRANSPIRATION =         142012.13     EVAPOTRANSPIRATION =          35249.58
           STREAMFLOW =          24990.67             STREAMFLOW =           4017.68
     GW BOUNDARY FLOW =           4303.79       GW BOUNDARY FLOW =            717.26
                WELLS =           7689.69                  WELLS =           1271.02

   INFLOWS - OUTFLOWS =        -178867.68     INFLOWS - OUTFLOWS =         -41234.04
             --------                                   --------

 TOTAL STORAGE CHANGE =         275341.35         STORAGE CHANGE =         -41231.30
       --------------                             --------------
         LAND SURFACE =         448066.34           LAND SURFACE =          -3653.34
            SOIL ZONE =         -78879.90              SOIL ZONE =         -21915.68
     UNSATURATED ZONE =         -35634.68       UNSATURATED ZONE =          -6017.73
       SATURATED ZONE =         -58210.40         SATURATED ZONE =          -9644.55

 OVERALL BUDGET ERROR =        -454209.04           BUDGET ERROR =             -2.74

  ***WARNING, CUMULATIVE VOLUME OFF > 5%

  PERCENT DISCREPANCY =           -199.89    PERCENT DISCREPANCY =             -0.01



1
 SUMMARY VOLUMETRIC BUDGET FOR GSFLOW 
 DATE: 10 20 1983              CUMULATIVE TIME STEP:    1114
 MODFLOW STRESS PERIOD      2     CURRENT TIME STEP:       7     ITERATIONS:      10

 -----------------------------------------------------------------------------------

   CUMULATIVE VOLUMES               L**3   RATES FOR THIS TIME STEP           L**3/T
   ------------------                      ------------------------

                                     IN                                         IN
                                     --                                         --
        PRECIPITATION =                            PRECIPITATION =                  
           STREAMFLOW =                               STREAMFLOW =                  
     GW BOUNDARY FLOW =                         GW BOUNDARY FLOW =                  
                WELLS =            151.70                  WELLS =             23.10


                                    OUT                                        OUT
                                    ---                                        ---
   EVAPOTRANSPIRATION =         177296.09     EVAPOTRANSPIRATION =          35283.96
           STREAMFLOW =          29000.99             STREAMFLOW =           4010.32
     GW BOUNDARY FLOW =           5021.05       GW BOUNDARY FLOW =            717.26
                WELLS =           8583.00                  WELLS =            893.31

   INFLOWS - OUTFLOWS =        -219749.43     INFLOWS - OUTFLOWS =         -40881.75
             --------                                   --------

 TOTAL STORAGE CHANGE =         234462.35         STORAGE CHANGE =         -40879.00
       --------------                             --------------
         LAND SURFACE =         443905.58           LAND SURFACE =          -4160.75
            SOIL ZONE =        -100292.54              SOIL ZONE =         -21412.64
     UNSATURATED ZONE =         -41682.84       UNSATURATED ZONE =          -6048.16
       SATURATED ZONE =         -67467.84         SATURATED ZONE =          -9257.44

 OVERALL BUDGET ERROR =        -454211.79           BUDGET ERROR =             -2.75

  ***WARNING, CUMULATIVE VOLUME OFF > 5%

  PERCENT DISCREPANCY =           -199.87    PERCENT DISCREPANCY =             -0.01



 Number of time steps:      7;  Number of non-convergence:   0
 MF iterations:            64;  SZ iterations:              64
 Average MF iterations:  9.14;  Average SZ iterations:    9.14
 Maximum MF iterations:    10;  Maximum SZ iterations:      10

MF iteration distribution:      0    0    0    0    0    0    0    0    6    1
                                0    0    0    0    0    0    0    0    0    0
                                0    0    0    0    0    0    0    0    0    0
                                0    0    0    0    0    0    0    0    0    0
                                0    0    0    0    0    0    0    0    0    0
                                0    0    0    0    0    0    0    0    0    0
                                0    0    0    0    0    0    0    0    0    0
                                0    0    0    0    0    0    0    0    0    0

SZ computation distribution:    0    0    0    0    0    0    0    0    6    1
                                0    0    0    0    0    0    0    0    0    0
                                0    0    0    0    0    0    0    0    0    0
                                0    0    0    0    0    0    0    0    0    0
                                0    0    0    0    0    0    0    0    0    0
                                0    0    0    0    0    0    0    0    0    0
                                0    0    0    0    0    0    0    0    0    0
                                0    0    0    0    0    0    0    0    0    0

