1
 SUMMARY VOLUMETRIC BUDGET FOR GSFLOW 
 DATE: 11 17 1983              CUMULATIVE TIME STEP:    1142
 MODFLOW STRESS PERIOD      2     CURRENT TIME STEP:       7     ITERATIONS:      13

 -----------------------------------------------------------------------------------

   CUMULATIVE VOLUMES               L**3   RATES FOR THIS TIME STEP           L**3/T
   ------------------                      ------------------------

                                     IN                                         IN
                                     --                                         --
        PRECIPITATION =        5385118.56          PRECIPITATION =        1589238.37
           STREAMFLOW =                               STREAMFLOW =                  
     GW BOUNDARY FLOW =                         GW BOUNDARY FLOW =                  
                WELLS =            163.13                  WELLS =              9.52


                                    OUT                                        OUT
                                    ---                                        ---
   EVAPOTRANSPIRATION =          80630.96     EVAPOTRANSPIRATION =          12983.43
           STREAMFLOW =         343382.72             STREAMFLOW =          51596.58
     GW BOUNDARY FLOW =           5064.49       GW BOUNDARY FLOW =            723.42
                WELLS =           3000.43                  WELLS =              9.52

   INFLOWS - OUTFLOWS =        4953203.09     INFLOWS - OUTFLOWS =        1523934.94
             --------                                   --------

 TOTAL STORAGE CHANGE =        5022227.31         STORAGE CHANGE =        1523936.70
       --------------                             --------------
         LAND SURFACE =        5056864.38           LAND SURFACE =        1524162.66
            SOIL ZONE =         -25553.24              SOIL ZONE =            236.04
     UNSATURATED ZONE =          44440.78       UNSATURATED ZONE =           6737.20
       SATURATED ZONE =         -53524.62         SATURATED ZONE =          -7199.20

 OVERALL BUDGET ERROR =         -69024.22           BUDGET ERROR =             -1.76


  PERCENT DISCREPANCY =             -1.27    PERCENT DISCREPANCY =             -0.00



