1
 SUMMARY VOLUMETRIC BUDGET FOR GSFLOW 
 DATE: 10 13 1983              CUMULATIVE TIME STEP:    1107
 MODFLOW STRESS PERIOD      2     CURRENT TIME STEP:       7     ITERATIONS:       9

 -----------------------------------------------------------------------------------

   CUMULATIVE VOLUMES               L**3   RATES FOR THIS TIME STEP           L**3/T
   ------------------                      ------------------------

                                     IN                                         IN
                                     --                                         --
        PRECIPITATION =                            PRECIPITATION =                  
           STREAMFLOW =                               STREAMFLOW =                  
     GW BOUNDARY FLOW =                         GW BOUNDARY FLOW =                  
                WELLS =              2.28                  WELLS =              0.33


                                    OUT                                        OUT
                                    ---                                        ---
   EVAPOTRANSPIRATION =         359566.87     EVAPOTRANSPIRATION =          55552.72
           STREAMFLOW =          36462.25             STREAMFLOW =           4570.77
     GW BOUNDARY FLOW =           5022.43       GW BOUNDARY FLOW =            717.36
                WELLS =          11613.54                  WELLS =           1637.00

   INFLOWS - OUTFLOWS =        -412662.80     INFLOWS - OUTFLOWS =         -62477.52
             --------                                   --------

 TOTAL STORAGE CHANGE =        -412648.23         STORAGE CHANGE =         -62475.09
       --------------                             --------------
         LAND SURFACE =         -37517.00           LAND SURFACE =          -6137.48
            SOIL ZONE =        -267278.45              SOIL ZONE =         -40596.91
     UNSATURATED ZONE =         -37672.55       UNSATURATED ZONE =          -5744.23
       SATURATED ZONE =         -70180.25         SATURATED ZONE =          -9996.48

 OVERALL BUDGET ERROR =            -14.57           BUDGET ERROR =             -2.44


  PERCENT DISCREPANCY =             -0.00    PERCENT DISCREPANCY =             -0.00



