1
 SUMMARY VOLUMETRIC BUDGET FOR GSFLOW 
 DATE: 09 23 1983              CUMULATIVE TIME STEP:    1087
 MODFLOW STRESS PERIOD      2     CURRENT TIME STEP:       1     ITERATIONS:      10

 -----------------------------------------------------------------------------------

   CUMULATIVE VOLUMES               L**3   RATES FOR THIS TIME STEP           L**3/T
   ------------------                      ------------------------

                                     IN                                         IN
                                     --                                         --
        PRECIPITATION =         222782.69          PRECIPITATION =         222782.69
           STREAMFLOW =                               STREAMFLOW =                  
     GW BOUNDARY FLOW =                         GW BOUNDARY FLOW =                  
                WELLS =             12.27                  WELLS =             12.27


                                    OUT                                        OUT
                                    ---                                        ---
   EVAPOTRANSPIRATION =          19963.08     EVAPOTRANSPIRATION =          19963.08
           STREAMFLOW =          13668.06             STREAMFLOW =          13668.06
     GW BOUNDARY FLOW =            717.21       GW BOUNDARY FLOW =            717.21
                WELLS =            431.55                  WELLS =            431.55

   INFLOWS - OUTFLOWS =         188015.05     INFLOWS - OUTFLOWS =         188015.05
             --------                                   --------

 TOTAL STORAGE CHANGE =         188017.22         STORAGE CHANGE =         188017.22
       --------------                             --------------
         LAND SURFACE =         -10684.77           LAND SURFACE =         -10684.77
            SOIL ZONE =         211394.50              SOIL ZONE =         211394.50
     UNSATURATED ZONE =          -5061.68       UNSATURATED ZONE =          -5061.68
       SATURATED ZONE =          -7630.83         SATURATED ZONE =          -7630.83

 OVERALL BUDGET ERROR =             -2.17           BUDGET ERROR =             -2.17


  PERCENT DISCREPANCY =             -0.00    PERCENT DISCREPANCY =             -0.00



1
 SUMMARY VOLUMETRIC BUDGET FOR GSFLOW 
 DATE: 09 24 1983              CUMULATIVE TIME STEP:    1088
 MODFLOW STRESS PERIOD      2     CURRENT TIME STEP:       2     ITERATIONS:      10

 -----------------------------------------------------------------------------------

   CUMULATIVE VOLUMES               L**3   RATES FOR THIS TIME STEP           L**3/T
   ------------------                      ------------------------

                                     IN                                         IN
                                     --                                         --
        PRECIPITATION =         222782.69          PRECIPITATION =                  
           STREAMFLOW =                               STREAMFLOW =                  
     GW BOUNDARY FLOW =                         GW BOUNDARY FLOW =                  
                WELLS =             24.26                  WELLS =             12.00


                                    OUT                                        OUT
                                    ---                                        ---
   EVAPOTRANSPIRATION =          46573.64     EVAPOTRANSPIRATION =          26610.56
           STREAMFLOW =          22390.73             STREAMFLOW =           8722.66
     GW BOUNDARY FLOW =           1434.44       GW BOUNDARY FLOW =            717.23
                WELLS =            860.85                  WELLS =            429.31

   INFLOWS - OUTFLOWS =         151547.29     INFLOWS - OUTFLOWS =         -36467.76
             --------                                   --------

 TOTAL STORAGE CHANGE =         151551.58         STORAGE CHANGE =         -36465.64
       --------------                             --------------
         LAND SURFACE =         -40953.28           LAND SURFACE =         -30268.51
            SOIL ZONE =         218729.92              SOIL ZONE =           7335.42
     UNSATURATED ZONE =         -10105.64       UNSATURATED ZONE =          -5043.96
       SATURATED ZONE =         -16119.42         SATURATED ZONE =          -8488.59

 OVERALL BUDGET ERROR =             -4.29           BUDGET ERROR =             -2.12


  PERCENT DISCREPANCY =             -0.00    PERCENT DISCREPANCY =             -0.01



1
 SUMMARY VOLUMETRIC BUDGET FOR GSFLOW 
 DATE: 09 25 1983              CUMULATIVE TIME STEP:    1089
 MODFLOW STRESS PERIOD      2     CURRENT TIME STEP:       3     ITERATIONS:      10

 -----------------------------------------------------------------------------------

   CUMULATIVE VOLUMES               L**3   RATES FOR THIS TIME STEP           L**3/T
   ------------------                      ------------------------

                                     IN                                         IN
                                     --                                         --
        PRECIPITATION =         222782.69          PRECIPITATION =                  
           STREAMFLOW =                               STREAMFLOW =                  
     GW BOUNDARY FLOW =                         GW BOUNDARY FLOW =                  
                WELLS =             36.34                  WELLS =             12.08


                                    OUT                                        OUT
                                    ---                                        ---
   EVAPOTRANSPIRATION =          78934.70     EVAPOTRANSPIRATION =          32361.06
           STREAMFLOW =          30692.61             STREAMFLOW =           8301.88
     GW BOUNDARY FLOW =           2151.68       GW BOUNDARY FLOW =            717.24
                WELLS =           1797.46                  WELLS =            936.61

   INFLOWS - OUTFLOWS =         109242.58     INFLOWS - OUTFLOWS =         -42304.71
             --------                                   --------

 TOTAL STORAGE CHANGE =         109248.98         STORAGE CHANGE =         -42302.60
       --------------                             --------------
         LAND SURFACE =         -55445.12           LAND SURFACE =         -14491.84
            SOIL ZONE =         204855.13              SOIL ZONE =         -13874.79
     UNSATURATED ZONE =         -14991.75       UNSATURATED ZONE =          -4886.12
       SATURATED ZONE =         -25169.28         SATURATED ZONE =          -9049.86

 OVERALL BUDGET ERROR =             -6.40           BUDGET ERROR =             -2.10


  PERCENT DISCREPANCY =             -0.00    PERCENT DISCREPANCY =             -0.00



1
 SUMMARY VOLUMETRIC BUDGET FOR GSFLOW 
 DATE: 09 26 1983              CUMULATIVE TIME STEP:    1090
 MODFLOW STRESS PERIOD      2     CURRENT TIME STEP:       4     ITERATIONS:      10

 -----------------------------------------------------------------------------------

   CUMULATIVE VOLUMES               L**3   RATES FOR THIS TIME STEP           L**3/T
   ------------------                      ------------------------

                                     IN                                         IN
                                     --                                         --
        PRECIPITATION =         222782.69          PRECIPITATION =                  
           STREAMFLOW =                               STREAMFLOW =                  
     GW BOUNDARY FLOW =                         GW BOUNDARY FLOW =                  
                WELLS =             52.98                  WELLS =             16.64


                                    OUT                                        OUT
                                    ---                                        ---
   EVAPOTRANSPIRATION =         127406.21     EVAPOTRANSPIRATION =          48471.51
           STREAMFLOW =          38707.21             STREAMFLOW =           8014.60
     GW BOUNDARY FLOW =           2868.93       GW BOUNDARY FLOW =            717.25
                WELLS =           2708.12                  WELLS =            910.67

   INFLOWS - OUTFLOWS =          51145.19     INFLOWS - OUTFLOWS =         -58097.39
             --------                                   --------

 TOTAL STORAGE CHANGE =          51153.59         STORAGE CHANGE =         -58095.39
       --------------                             --------------
         LAND SURFACE =         -64695.65           LAND SURFACE =          -9250.54
            SOIL ZONE =         169816.86              SOIL ZONE =         -35038.27
     UNSATURATED ZONE =         -19784.10       UNSATURATED ZONE =          -4792.35
       SATURATED ZONE =         -34183.52         SATURATED ZONE =          -9014.24

 OVERALL BUDGET ERROR =             -8.39           BUDGET ERROR =             -2.00


  PERCENT DISCREPANCY =             -0.00    PERCENT DISCREPANCY =             -0.00



1
 SUMMARY VOLUMETRIC BUDGET FOR GSFLOW 
 DATE: 09 27 1983              CUMULATIVE TIME STEP:    1091
 MODFLOW STRESS PERIOD      2     CURRENT TIME STEP:       5     ITERATIONS:      10

 -----------------------------------------------------------------------------------

   CUMULATIVE VOLUMES               L**3   RATES FOR THIS TIME STEP           L**3/T
   ------------------                      ------------------------

                                     IN                                         IN
                                     --                                         --
        PRECIPITATION =         222782.69          PRECIPITATION =                  
           STREAMFLOW =                               STREAMFLOW =                  
     GW BOUNDARY FLOW =                         GW BOUNDARY FLOW =                  
                WELLS =             70.68                  WELLS =             17.70


                                    OUT                                        OUT
                                    ---                                        ---
   EVAPOTRANSPIRATION =         165099.73     EVAPOTRANSPIRATION =          37693.52
           STREAMFLOW =          45896.23             STREAMFLOW =           7189.02
     GW BOUNDARY FLOW =           3586.16       GW BOUNDARY FLOW =            717.23
                WELLS =           3612.00                  WELLS =            903.88

   INFLOWS - OUTFLOWS =           4659.24     INFLOWS - OUTFLOWS =         -46485.95
             --------                                   --------

 TOTAL STORAGE CHANGE =           4669.46         STORAGE CHANGE =         -46484.13
       --------------                             --------------
         LAND SURFACE =         -71408.21           LAND SURFACE =          -6712.56
            SOIL ZONE =         144031.96              SOIL ZONE =         -25784.90
     UNSATURATED ZONE =         -24676.66       UNSATURATED ZONE =          -4892.56
       SATURATED ZONE =         -43277.63         SATURATED ZONE =          -9094.11

 OVERALL BUDGET ERROR =            -10.22           BUDGET ERROR =             -1.83


  PERCENT DISCREPANCY =             -0.00    PERCENT DISCREPANCY =             -0.00



1
 SUMMARY VOLUMETRIC BUDGET FOR GSFLOW 
 DATE: 09 28 1983              CUMULATIVE TIME STEP:    1092
 MODFLOW STRESS PERIOD      2     CURRENT TIME STEP:       6     ITERATIONS:      10

 -----------------------------------------------------------------------------------

   CUMULATIVE VOLUMES               L**3   RATES FOR THIS TIME STEP           L**3/T
   ------------------                      ------------------------

                                     IN                                         IN
                                     --                                         --
        PRECIPITATION =         332646.99          PRECIPITATION =         109864.30
           STREAMFLOW =                               STREAMFLOW =                  
     GW BOUNDARY FLOW =                         GW BOUNDARY FLOW =                  
                WELLS =             88.75                  WELLS =             18.07


                                    OUT                                        OUT
                                    ---                                        ---
   EVAPOTRANSPIRATION =         199006.58     EVAPOTRANSPIRATION =          33906.84
           STREAMFLOW =          54493.26             STREAMFLOW =           8597.03
     GW BOUNDARY FLOW =           4303.51       GW BOUNDARY FLOW =            717.35
                WELLS =           4511.52                  WELLS =            899.52

   INFLOWS - OUTFLOWS =          70420.88     INFLOWS - OUTFLOWS =          65761.64
             --------                                   --------

 TOTAL STORAGE CHANGE =          70433.24         STORAGE CHANGE =          65763.79
       --------------                             --------------
         LAND SURFACE =         -44368.70           LAND SURFACE =          27039.52
            SOIL ZONE =         196275.11              SOIL ZONE =          52243.14
     UNSATURATED ZONE =         -29396.90       UNSATURATED ZONE =          -4720.24
       SATURATED ZONE =         -52076.27         SATURATED ZONE =          -8798.64

 OVERALL BUDGET ERROR =            -12.37           BUDGET ERROR =             -2.15


  PERCENT DISCREPANCY =             -0.00    PERCENT DISCREPANCY =             -0.00



1
 SUMMARY VOLUMETRIC BUDGET FOR GSFLOW 
 DATE: 09 29 1983              CUMULATIVE TIME STEP:    1093
 MODFLOW STRESS PERIOD      2     CURRENT TIME STEP:       7     ITERATIONS:      10

 -----------------------------------------------------------------------------------

   CUMULATIVE VOLUMES               L**3   RATES FOR THIS TIME STEP           L**3/T
   ------------------                      ------------------------

                                     IN                                         IN
                                     --                                         --
        PRECIPITATION =         579655.81          PRECIPITATION =         247008.82
           STREAMFLOW =                               STREAMFLOW =                  
     GW BOUNDARY FLOW =                         GW BOUNDARY FLOW =                  
                WELLS =            107.05                  WELLS =             18.29


                                    OUT                                        OUT
                                    ---                                        ---
   EVAPOTRANSPIRATION =         221475.79     EVAPOTRANSPIRATION =          22469.21
           STREAMFLOW =          69482.90             STREAMFLOW =          14989.64
     GW BOUNDARY FLOW =           5021.37       GW BOUNDARY FLOW =            717.85
                WELLS =           5407.25                  WELLS =            895.73

   INFLOWS - OUTFLOWS =         278375.55     INFLOWS - OUTFLOWS =         207954.67
             --------                                   --------

 TOTAL STORAGE CHANGE =         278390.01         STORAGE CHANGE =         207956.76
       --------------                             --------------
         LAND SURFACE =         -53862.17           LAND SURFACE =          -9493.47
            SOIL ZONE =         425829.38              SOIL ZONE =         229554.27
     UNSATURATED ZONE =         -33393.00       UNSATURATED ZONE =          -3996.10
       SATURATED ZONE =         -60184.20         SATURATED ZONE =          -8107.93

 OVERALL BUDGET ERROR =            -14.46           BUDGET ERROR =             -2.09


  PERCENT DISCREPANCY =             -0.00    PERCENT DISCREPANCY =             -0.00



