1
 SUMMARY VOLUMETRIC BUDGET FOR GSFLOW 
 DATE: 10 07 1983              CUMULATIVE TIME STEP:    1101
 MODFLOW STRESS PERIOD      2     CURRENT TIME STEP:       1     ITERATIONS:      18

 -----------------------------------------------------------------------------------

   CUMULATIVE VOLUMES               L**3   RATES FOR THIS TIME STEP           L**3/T
   ------------------                      ------------------------

                                     IN                                         IN
                                     --                                         --
        PRECIPITATION =                            PRECIPITATION =                  
           STREAMFLOW =                               STREAMFLOW =                  
     GW BOUNDARY FLOW =                         GW BOUNDARY FLOW =                  
                WELLS =             31.19                  WELLS =             31.19


                                    OUT                                        OUT
                                    ---                                        ---
   EVAPOTRANSPIRATION =          80330.64     EVAPOTRANSPIRATION =          80330.64
           STREAMFLOW =           6408.79             STREAMFLOW =           6408.79
     GW BOUNDARY FLOW =            717.71       GW BOUNDARY FLOW =            717.71
                WELLS =           1354.98                  WELLS =           1354.98

   INFLOWS - OUTFLOWS =         -88780.93     INFLOWS - OUTFLOWS =         -88780.93
             --------                                   --------

 TOTAL STORAGE CHANGE =         -88779.05         STORAGE CHANGE =         -88779.05
       --------------                             --------------
         LAND SURFACE =          -7064.38           LAND SURFACE =          -7064.38
            SOIL ZONE =         -67198.17              SOIL ZONE =         -67198.17
     UNSATURATED ZONE =          -4797.87       UNSATURATED ZONE =          -4797.87
       SATURATED ZONE =          -9718.63         SATURATED ZONE =          -9718.63

 OVERALL BUDGET ERROR =             -1.88           BUDGET ERROR =             -1.88


  PERCENT DISCREPANCY =             -0.00    PERCENT DISCREPANCY =             -0.00



1
 SUMMARY VOLUMETRIC BUDGET FOR GSFLOW 
 DATE: 10 08 1983              CUMULATIVE TIME STEP:    1102
 MODFLOW STRESS PERIOD      2     CURRENT TIME STEP:       2     ITERATIONS:      10

 -----------------------------------------------------------------------------------

   CUMULATIVE VOLUMES               L**3   RATES FOR THIS TIME STEP           L**3/T
   ------------------                      ------------------------

                                     IN                                         IN
                                     --                                         --
        PRECIPITATION =                            PRECIPITATION =                  
           STREAMFLOW =                               STREAMFLOW =                  
     GW BOUNDARY FLOW =                         GW BOUNDARY FLOW =                  
                WELLS =             53.74                  WELLS =             22.55


                                    OUT                                        OUT
                                    ---                                        ---
   EVAPOTRANSPIRATION =         138106.44     EVAPOTRANSPIRATION =          57775.81
           STREAMFLOW =          12167.62             STREAMFLOW =           5758.83
     GW BOUNDARY FLOW =           1435.32       GW BOUNDARY FLOW =            717.61
                WELLS =           2682.94                  WELLS =           1327.96

   INFLOWS - OUTFLOWS =        -154338.59     INFLOWS - OUTFLOWS =         -65557.66
             --------                                   --------

 TOTAL STORAGE CHANGE =        -154334.87         STORAGE CHANGE =         -65555.82
       --------------                             --------------
         LAND SURFACE =         -12426.96           LAND SURFACE =          -5362.57
            SOIL ZONE =        -112500.11              SOIL ZONE =         -45301.94
     UNSATURATED ZONE =          -9940.77       UNSATURATED ZONE =          -5142.91
       SATURATED ZONE =         -19467.03         SATURATED ZONE =          -9748.39

 OVERALL BUDGET ERROR =             -3.72           BUDGET ERROR =             -1.84


  PERCENT DISCREPANCY =             -0.00    PERCENT DISCREPANCY =             -0.00



1
 SUMMARY VOLUMETRIC BUDGET FOR GSFLOW 
 DATE: 10 09 1983              CUMULATIVE TIME STEP:    1103
 MODFLOW STRESS PERIOD      2     CURRENT TIME STEP:       3     ITERATIONS:       9

 -----------------------------------------------------------------------------------

   CUMULATIVE VOLUMES               L**3   RATES FOR THIS TIME STEP           L**3/T
   ------------------                      ------------------------

                                     IN                                         IN
                                     --                                         --
        PRECIPITATION =                            PRECIPITATION =                  
           STREAMFLOW =                               STREAMFLOW =                  
     GW BOUNDARY FLOW =                         GW BOUNDARY FLOW =                  
                WELLS =             75.18                  WELLS =             21.44


                                    OUT                                        OUT
                                    ---                                        ---
   EVAPOTRANSPIRATION =         170971.74     EVAPOTRANSPIRATION =          32865.30
           STREAMFLOW =          17546.86             STREAMFLOW =           5379.24
     GW BOUNDARY FLOW =           2152.86       GW BOUNDARY FLOW =            717.54
                WELLS =           4002.84                  WELLS =           1319.90

   INFLOWS - OUTFLOWS =        -194599.13     INFLOWS - OUTFLOWS =         -40260.54
             --------                                   --------

 TOTAL STORAGE CHANGE =        -194593.45         STORAGE CHANGE =         -40258.58
       --------------                             --------------
         LAND SURFACE =         -17504.90           LAND SURFACE =          -5077.95
            SOIL ZONE =        -132558.14              SOIL ZONE =         -20058.02
     UNSATURATED ZONE =         -15292.95       UNSATURATED ZONE =          -5352.18
       SATURATED ZONE =         -29237.45         SATURATED ZONE =          -9770.43

 OVERALL BUDGET ERROR =             -5.68           BUDGET ERROR =             -1.96


  PERCENT DISCREPANCY =             -0.00    PERCENT DISCREPANCY =             -0.00



1
 SUMMARY VOLUMETRIC BUDGET FOR GSFLOW 
 DATE: 10 10 1983              CUMULATIVE TIME STEP:    1104
 MODFLOW STRESS PERIOD      2     CURRENT TIME STEP:       4     ITERATIONS:       9

 -----------------------------------------------------------------------------------

   CUMULATIVE VOLUMES               L**3   RATES FOR THIS TIME STEP           L**3/T
   ------------------                      ------------------------

                                     IN                                         IN
                                     --                                         --
        PRECIPITATION =                            PRECIPITATION =                  
           STREAMFLOW =                               STREAMFLOW =                  
     GW BOUNDARY FLOW =                         GW BOUNDARY FLOW =                  
                WELLS =             96.46                  WELLS =             21.28


                                    OUT                                        OUT
                                    ---                                        ---
   EVAPOTRANSPIRATION =         199615.47     EVAPOTRANSPIRATION =          28643.73
           STREAMFLOW =          22574.13             STREAMFLOW =           5027.27
     GW BOUNDARY FLOW =           2870.33       GW BOUNDARY FLOW =            717.47
                WELLS =           5316.66                  WELLS =           1313.82

   INFLOWS - OUTFLOWS =        -230280.13     INFLOWS - OUTFLOWS =         -35681.01
             --------                                   --------

 TOTAL STORAGE CHANGE =        -230272.40         STORAGE CHANGE =         -35678.96
       --------------                             --------------
         LAND SURFACE =         -18998.17           LAND SURFACE =          -1493.27
            SOIL ZONE =        -151439.22              SOIL ZONE =         -18881.09
     UNSATURATED ZONE =         -20801.89       UNSATURATED ZONE =          -5508.94
       SATURATED ZONE =         -39033.11         SATURATED ZONE =          -9795.66

 OVERALL BUDGET ERROR =             -7.73           BUDGET ERROR =             -2.05


  PERCENT DISCREPANCY =             -0.00    PERCENT DISCREPANCY =             -0.01



1
 SUMMARY VOLUMETRIC BUDGET FOR GSFLOW 
 DATE: 10 11 1983              CUMULATIVE TIME STEP:    1105
 MODFLOW STRESS PERIOD      2     CURRENT TIME STEP:       5     ITERATIONS:       9

 -----------------------------------------------------------------------------------

   CUMULATIVE VOLUMES               L**3   RATES FOR THIS TIME STEP           L**3/T
   ------------------                      ------------------------

                                     IN                                         IN
                                     --                                         --
        PRECIPITATION =                            PRECIPITATION =                  
           STREAMFLOW =                               STREAMFLOW =                  
     GW BOUNDARY FLOW =                         GW BOUNDARY FLOW =                  
                WELLS =            117.73                  WELLS =             21.27


                                    OUT                                        OUT
                                    ---                                        ---
   EVAPOTRANSPIRATION =         246875.10     EVAPOTRANSPIRATION =          47259.63
           STREAMFLOW =          27563.49             STREAMFLOW =           4989.36
     GW BOUNDARY FLOW =           3587.76       GW BOUNDARY FLOW =            717.43
                WELLS =           6624.86                  WELLS =           1308.20

   INFLOWS - OUTFLOWS =        -284533.49     INFLOWS - OUTFLOWS =         -54253.36
             --------                                   --------

 TOTAL STORAGE CHANGE =        -284522.73         STORAGE CHANGE =         -54250.32
       --------------                             --------------
         LAND SURFACE =         -24664.47           LAND SURFACE =          -5666.29
            SOIL ZONE =        -184722.88              SOIL ZONE =         -33283.65
     UNSATURATED ZONE =         -26341.60       UNSATURATED ZONE =          -5539.71
       SATURATED ZONE =         -48793.78         SATURATED ZONE =          -9760.67

 OVERALL BUDGET ERROR =            -10.76           BUDGET ERROR =             -3.03


  PERCENT DISCREPANCY =             -0.00    PERCENT DISCREPANCY =             -0.01



1
 SUMMARY VOLUMETRIC BUDGET FOR GSFLOW 
 DATE: 10 12 1983              CUMULATIVE TIME STEP:    1106
 MODFLOW STRESS PERIOD      2     CURRENT TIME STEP:       6     ITERATIONS:       9

 -----------------------------------------------------------------------------------

   CUMULATIVE VOLUMES               L**3   RATES FOR THIS TIME STEP           L**3/T
   ------------------                      ------------------------

                                     IN                                         IN
                                     --                                         --
        PRECIPITATION =                            PRECIPITATION =                  
           STREAMFLOW =                               STREAMFLOW =                  
     GW BOUNDARY FLOW =                         GW BOUNDARY FLOW =                  
                WELLS =            139.02                  WELLS =             21.29


                                    OUT                                        OUT
                                    ---                                        ---
   EVAPOTRANSPIRATION =         304014.66     EVAPOTRANSPIRATION =          57139.55
           STREAMFLOW =          32423.04             STREAMFLOW =           4859.55
     GW BOUNDARY FLOW =           4305.17       GW BOUNDARY FLOW =            717.41
                WELLS =           7927.71                  WELLS =           1302.84

   INFLOWS - OUTFLOWS =        -348531.56     INFLOWS - OUTFLOWS =         -63998.07
             --------                                   --------

 TOTAL STORAGE CHANGE =        -348518.56         STORAGE CHANGE =         -63995.83
       --------------                             --------------
         LAND SURFACE =         -31379.51           LAND SURFACE =          -6715.05
            SOIL ZONE =        -226629.90              SOIL ZONE =         -41907.02
     UNSATURATED ZONE =         -31994.73       UNSATURATED ZONE =          -5653.13
       SATURATED ZONE =         -58514.41         SATURATED ZONE =          -9720.63

 OVERALL BUDGET ERROR =            -13.00           BUDGET ERROR =             -2.24


  PERCENT DISCREPANCY =             -0.00    PERCENT DISCREPANCY =             -0.00



1
 SUMMARY VOLUMETRIC BUDGET FOR GSFLOW 
 DATE: 10 13 1983              CUMULATIVE TIME STEP:    1107
 MODFLOW STRESS PERIOD      2     CURRENT TIME STEP:       7     ITERATIONS:       9

 -----------------------------------------------------------------------------------

   CUMULATIVE VOLUMES               L**3   RATES FOR THIS TIME STEP           L**3/T
   ------------------                      ------------------------

                                     IN                                         IN
                                     --                                         --
        PRECIPITATION =                            PRECIPITATION =                  
           STREAMFLOW =                               STREAMFLOW =                  
     GW BOUNDARY FLOW =                         GW BOUNDARY FLOW =                  
                WELLS =            160.34                  WELLS =             21.32


                                    OUT                                        OUT
                                    ---                                        ---
   EVAPOTRANSPIRATION =         359567.77     EVAPOTRANSPIRATION =          55553.11
           STREAMFLOW =          37079.62             STREAMFLOW =           4656.58
     GW BOUNDARY FLOW =           5022.55       GW BOUNDARY FLOW =            717.38
                WELLS =           9225.42                  WELLS =           1297.72

   INFLOWS - OUTFLOWS =        -410735.03     INFLOWS - OUTFLOWS =         -62203.47
             --------                                   --------

 TOTAL STORAGE CHANGE =        -410719.60         STORAGE CHANGE =         -62201.04
       --------------                             --------------
         LAND SURFACE =         -37516.99           LAND SURFACE =          -6137.47
            SOIL ZONE =        -267216.13              SOIL ZONE =         -40586.23
     UNSATURATED ZONE =         -37750.26       UNSATURATED ZONE =          -5755.53
       SATURATED ZONE =         -68236.22         SATURATED ZONE =          -9721.80

 OVERALL BUDGET ERROR =            -15.43           BUDGET ERROR =             -2.43


  PERCENT DISCREPANCY =             -0.00    PERCENT DISCREPANCY =             -0.00



 Number of time steps:      7;  Number of non-convergence:   0
 MF iterations:            73;  SZ iterations:              73
 Average MF iterations: 10.43;  Average SZ iterations:   10.43
 Maximum MF iterations:    18;  Maximum SZ iterations:      18

MF iteration distribution:      0    0    0    0    0    0    0    0    5    1
                                0    0    0    0    0    0    0    1    0    0
                                0    0    0    0    0    0    0    0    0    0
                                0    0    0    0    0    0    0    0    0    0
                                0    0    0    0    0    0    0    0    0    0
                                0    0    0    0    0    0    0    0    0    0
                                0    0    0    0    0    0    0    0    0    0
                                0    0    0    0    0    0    0    0    0    0

SZ computation distribution:    0    0    0    0    0    0    0    0    5    1
                                0    0    0    0    0    0    0    1    0    0
                                0    0    0    0    0    0    0    0    0    0
                                0    0    0    0    0    0    0    0    0    0
                                0    0    0    0    0    0    0    0    0    0
                                0    0    0    0    0    0    0    0    0    0
                                0    0    0    0    0    0    0    0    0    0
                                0    0    0    0    0    0    0    0    0    0

