1
 SUMMARY VOLUMETRIC BUDGET FOR GSFLOW 
 DATE: 11 10 1983              CUMULATIVE TIME STEP:    1135
 MODFLOW STRESS PERIOD      2     CURRENT TIME STEP:       7     ITERATIONS:       8

 -----------------------------------------------------------------------------------

   CUMULATIVE VOLUMES               L**3   RATES FOR THIS TIME STEP           L**3/T
   ------------------                      ------------------------

                                     IN                                         IN
                                     --                                         --
        PRECIPITATION =        1961472.48          PRECIPITATION =        1338149.95
           STREAMFLOW =                               STREAMFLOW =                  
     GW BOUNDARY FLOW =                         GW BOUNDARY FLOW =                  
                WELLS =            187.62                  WELLS =             26.25


                                    OUT                                        OUT
                                    ---                                        ---
   EVAPOTRANSPIRATION =         195825.44     EVAPOTRANSPIRATION =          16472.16
           STREAMFLOW =         310506.75             STREAMFLOW =          89853.51
     GW BOUNDARY FLOW =           5051.53       GW BOUNDARY FLOW =            723.82
                WELLS =           3538.65                  WELLS =            503.47

   INFLOWS - OUTFLOWS =        1446737.73     INFLOWS - OUTFLOWS =        1230623.23
             --------                                   --------

 TOTAL STORAGE CHANGE =        1446755.70         STORAGE CHANGE =        1230625.83
       --------------                             --------------
         LAND SURFACE =         661129.51           LAND SURFACE =        1036800.81
            SOIL ZONE =         827973.73              SOIL ZONE =         192943.15
     UNSATURATED ZONE =           8340.85       UNSATURATED ZONE =           7022.05
       SATURATED ZONE =         -50688.38         SATURATED ZONE =          -6140.18

 OVERALL BUDGET ERROR =            -17.97           BUDGET ERROR =             -2.60


  PERCENT DISCREPANCY =             -0.00    PERCENT DISCREPANCY =             -0.00



