1
 SUMMARY VOLUMETRIC BUDGET FOR GSFLOW 
 DATE: 11 24 1983              CUMULATIVE TIME STEP:    1149
 MODFLOW STRESS PERIOD      2     CURRENT TIME STEP:       7     ITERATIONS:       8

 -----------------------------------------------------------------------------------

   CUMULATIVE VOLUMES               L**3   RATES FOR THIS TIME STEP           L**3/T
   ------------------                      ------------------------

                                     IN                                         IN
                                     --                                         --
        PRECIPITATION =        3194686.24          PRECIPITATION =        1091405.11
           STREAMFLOW =                               STREAMFLOW =                  
     GW BOUNDARY FLOW =                         GW BOUNDARY FLOW =                  
                WELLS =            139.61                  WELLS =             10.87


                                    OUT                                        OUT
                                    ---                                        ---
   EVAPOTRANSPIRATION =          47977.26     EVAPOTRANSPIRATION =          11574.23
           STREAMFLOW =         194828.80             STREAMFLOW =          21101.83
     GW BOUNDARY FLOW =           5053.23       GW BOUNDARY FLOW =            720.86
                WELLS =           5473.91                  WELLS =            432.28

   INFLOWS - OUTFLOWS =        2941492.64     INFLOWS - OUTFLOWS =        1057586.79
             --------                                   --------

 TOTAL STORAGE CHANGE =        2941497.74         STORAGE CHANGE =        1057586.90
       --------------                             --------------
         LAND SURFACE =        3144727.42           LAND SURFACE =        1079830.88
            SOIL ZONE =        -170044.27              SOIL ZONE =         -15860.39
     UNSATURATED ZONE =          26764.19       UNSATURATED ZONE =           2034.11
       SATURATED ZONE =         -59949.60         SATURATED ZONE =          -8417.70

 OVERALL BUDGET ERROR =             -5.09           BUDGET ERROR =             -0.11


  PERCENT DISCREPANCY =             -0.00    PERCENT DISCREPANCY =             -0.00



