1
 SUMMARY VOLUMETRIC BUDGET FOR GSFLOW 
 DATE: 11 10 1983              CUMULATIVE TIME STEP:    1135
 MODFLOW STRESS PERIOD      2     CURRENT TIME STEP:       7     ITERATIONS:       8

 -----------------------------------------------------------------------------------

   CUMULATIVE VOLUMES               L**3   RATES FOR THIS TIME STEP           L**3/T
   ------------------                      ------------------------

                                     IN                                         IN
                                     --                                         --
        PRECIPITATION =        1961472.48          PRECIPITATION =        1338149.95
           STREAMFLOW =                               STREAMFLOW =                  
     GW BOUNDARY FLOW =                         GW BOUNDARY FLOW =                  
                WELLS =            184.83                  WELLS =             25.86


                                    OUT                                        OUT
                                    ---                                        ---
   EVAPOTRANSPIRATION =         195825.44     EVAPOTRANSPIRATION =          16472.16
           STREAMFLOW =         310561.67             STREAMFLOW =          89862.86
     GW BOUNDARY FLOW =           5051.54       GW BOUNDARY FLOW =            723.82
                WELLS =           3517.07                  WELLS =            500.66

   INFLOWS - OUTFLOWS =        1446701.59     INFLOWS - OUTFLOWS =        1230616.30
             --------                                   --------

 TOTAL STORAGE CHANGE =        1446719.56         STORAGE CHANGE =        1230618.89
       --------------                             --------------
         LAND SURFACE =         661129.48           LAND SURFACE =        1036800.81
            SOIL ZONE =         827979.04              SOIL ZONE =         192941.06
     UNSATURATED ZONE =           8329.92       UNSATURATED ZONE =           7022.11
       SATURATED ZONE =         -50718.89         SATURATED ZONE =          -6145.08

 OVERALL BUDGET ERROR =            -17.97           BUDGET ERROR =             -2.59


  PERCENT DISCREPANCY =             -0.00    PERCENT DISCREPANCY =             -0.00



