1
 SUMMARY VOLUMETRIC BUDGET FOR GSFLOW 
 DATE: 10 07 1990              CUMULATIVE TIME STEP:       7
 MODFLOW STRESS PERIOD      2     CURRENT TIME STEP:       7     ITERATIONS:       7

 -----------------------------------------------------------------------------------

   CUMULATIVE VOLUMES               L**3   RATES FOR THIS TIME STEP           L**3/T
   ------------------                      ------------------------

                                     IN                                         IN
                                     --                                         --
        PRECIPITATION =                            PRECIPITATION =                  
           STREAMFLOW =                               STREAMFLOW =                  
     GW BOUNDARY FLOW =                         GW BOUNDARY FLOW =                  


                                    OUT                                        OUT
                                    ---                                        ---
   EVAPOTRANSPIRATION =         384990.49     EVAPOTRANSPIRATION =          11800.18
           STREAMFLOW =          46411.22             STREAMFLOW =           8188.39
     GW BOUNDARY FLOW =            252.80       GW BOUNDARY FLOW =             36.30

   INFLOWS - OUTFLOWS =        -431654.51     INFLOWS - OUTFLOWS =         -20024.87
             --------                                   --------

 TOTAL STORAGE CHANGE =        -430185.40         STORAGE CHANGE =         -19998.10
       --------------                             --------------
         LAND SURFACE =                             LAND SURFACE =                  
            SOIL ZONE =         -33648.79              SOIL ZONE =           -949.19
     UNSATURATED ZONE =        -502891.83       UNSATURATED ZONE =         -33584.69
       SATURATED ZONE =         106355.22         SATURATED ZONE =          14535.78

 OVERALL BUDGET ERROR =          -1469.11           BUDGET ERROR =            -26.77


  PERCENT DISCREPANCY =             -0.34    PERCENT DISCREPANCY =             -0.13



1
 SUMMARY VOLUMETRIC BUDGET FOR GSFLOW 
 DATE: 10 14 1990              CUMULATIVE TIME STEP:      14
 MODFLOW STRESS PERIOD      2     CURRENT TIME STEP:      14     ITERATIONS:       6

 -----------------------------------------------------------------------------------

   CUMULATIVE VOLUMES               L**3   RATES FOR THIS TIME STEP           L**3/T
   ------------------                      ------------------------

                                     IN                                         IN
                                     --                                         --
        PRECIPITATION =                            PRECIPITATION =                  
           STREAMFLOW =                               STREAMFLOW =                  
     GW BOUNDARY FLOW =                         GW BOUNDARY FLOW =                  


                                    OUT                                        OUT
                                    ---                                        ---
   EVAPOTRANSPIRATION =         665184.63     EVAPOTRANSPIRATION =          42312.18
           STREAMFLOW =         101637.94             STREAMFLOW =           7490.60
     GW BOUNDARY FLOW =            506.66       GW BOUNDARY FLOW =             36.24

   INFLOWS - OUTFLOWS =        -767329.23     INFLOWS - OUTFLOWS =         -49839.03
             --------                                   --------

 TOTAL STORAGE CHANGE =        -765574.65         STORAGE CHANGE =         -49818.19
       --------------                             --------------
         LAND SURFACE =                             LAND SURFACE =                  
            SOIL ZONE =         -58653.35              SOIL ZONE =          -4416.72
     UNSATURATED ZONE =        -877891.35       UNSATURATED ZONE =         -52098.02
       SATURATED ZONE =         170970.05         SATURATED ZONE =           6696.56

 OVERALL BUDGET ERROR =          -1754.58           BUDGET ERROR =            -20.84


  PERCENT DISCREPANCY =             -0.23    PERCENT DISCREPANCY =             -0.04



1
 SUMMARY VOLUMETRIC BUDGET FOR GSFLOW 
 DATE: 10 21 1990              CUMULATIVE TIME STEP:      21
 MODFLOW STRESS PERIOD      2     CURRENT TIME STEP:      21     ITERATIONS:       6

 -----------------------------------------------------------------------------------

   CUMULATIVE VOLUMES               L**3   RATES FOR THIS TIME STEP           L**3/T
   ------------------                      ------------------------

                                     IN                                         IN
                                     --                                         --
        PRECIPITATION =         188432.87          PRECIPITATION =                  
           STREAMFLOW =                               STREAMFLOW =                  
     GW BOUNDARY FLOW =                         GW BOUNDARY FLOW =                  


                                    OUT                                        OUT
                                    ---                                        ---
   EVAPOTRANSPIRATION =         815415.16     EVAPOTRANSPIRATION =          41709.13
           STREAMFLOW =         164749.82             STREAMFLOW =          10161.64
     GW BOUNDARY FLOW =            760.85       GW BOUNDARY FLOW =             36.37

   INFLOWS - OUTFLOWS =        -792492.96     INFLOWS - OUTFLOWS =         -51907.14
             --------                                   --------

 TOTAL STORAGE CHANGE =        -790686.23         STORAGE CHANGE =         -51911.80
       --------------                             --------------
         LAND SURFACE =          18885.57           LAND SURFACE =         -43558.49
            SOIL ZONE =          48186.33              SOIL ZONE =           2052.88
     UNSATURATED ZONE =       -1091610.14       UNSATURATED ZONE =         -21327.05
       SATURATED ZONE =         233852.01         SATURATED ZONE =          10920.85

 OVERALL BUDGET ERROR =          -1806.73           BUDGET ERROR =              4.66


  PERCENT DISCREPANCY =             -0.18    PERCENT DISCREPANCY =              0.01



1
 SUMMARY VOLUMETRIC BUDGET FOR GSFLOW 
 DATE: 10 28 1990              CUMULATIVE TIME STEP:      28
 MODFLOW STRESS PERIOD      2     CURRENT TIME STEP:      28     ITERATIONS:       6

 -----------------------------------------------------------------------------------

   CUMULATIVE VOLUMES               L**3   RATES FOR THIS TIME STEP           L**3/T
   ------------------                      ------------------------

                                     IN                                         IN
                                     --                                         --
        PRECIPITATION =         188432.87          PRECIPITATION =                  
           STREAMFLOW =                               STREAMFLOW =                  
     GW BOUNDARY FLOW =                         GW BOUNDARY FLOW =                  


                                    OUT                                        OUT
                                    ---                                        ---
   EVAPOTRANSPIRATION =         943718.16     EVAPOTRANSPIRATION =          11819.64
           STREAMFLOW =         226488.35             STREAMFLOW =           8968.28
     GW BOUNDARY FLOW =           1014.05       GW BOUNDARY FLOW =             36.13

   INFLOWS - OUTFLOWS =        -982787.69     INFLOWS - OUTFLOWS =         -20824.04
             --------                                   --------

 TOTAL STORAGE CHANGE =        -980969.19         STORAGE CHANGE =         -20825.94
       --------------                             --------------
         LAND SURFACE =                             LAND SURFACE =                  
            SOIL ZONE =          19147.03              SOIL ZONE =          -3436.41
     UNSATURATED ZONE =       -1274909.16       UNSATURATED ZONE =         -23224.80
       SATURATED ZONE =         274792.94         SATURATED ZONE =           5835.28

 OVERALL BUDGET ERROR =          -1818.51           BUDGET ERROR =              1.89


  PERCENT DISCREPANCY =             -0.16    PERCENT DISCREPANCY =              0.01



1
 SUMMARY VOLUMETRIC BUDGET FOR GSFLOW 
 DATE: 11 04 1990              CUMULATIVE TIME STEP:       4
 MODFLOW STRESS PERIOD      3     CURRENT TIME STEP:      35     ITERATIONS:       6

 -----------------------------------------------------------------------------------

   CUMULATIVE VOLUMES               L**3   RATES FOR THIS TIME STEP           L**3/T
   ------------------                      ------------------------

                                     IN                                         IN
                                     --                                         --
        PRECIPITATION =         703113.06          PRECIPITATION =                  
           STREAMFLOW =                               STREAMFLOW =                  
     GW BOUNDARY FLOW =                         GW BOUNDARY FLOW =                  


                                    OUT                                        OUT
                                    ---                                        ---
   EVAPOTRANSPIRATION =        1004281.59     EVAPOTRANSPIRATION =          26280.47
           STREAMFLOW =         296905.24             STREAMFLOW =          10535.63
     GW BOUNDARY FLOW =           1267.10       GW BOUNDARY FLOW =             36.14

   INFLOWS - OUTFLOWS =        -599340.86     INFLOWS - OUTFLOWS =         -36852.23
             --------                                   --------

 TOTAL STORAGE CHANGE =        -597543.49         STORAGE CHANGE =         -36856.85
       --------------                             --------------
         LAND SURFACE =         132159.65           LAND SURFACE =        -160480.33
            SOIL ZONE =         356553.86              SOIL ZONE =         134353.65
     UNSATURATED ZONE =       -1420367.09       UNSATURATED ZONE =         -20041.06
       SATURATED ZONE =         334110.09         SATURATED ZONE =           9310.89

 OVERALL BUDGET ERROR =          -1797.37           BUDGET ERROR =              4.61


  PERCENT DISCREPANCY =             -0.14    PERCENT DISCREPANCY =              0.01



1
 SUMMARY VOLUMETRIC BUDGET FOR GSFLOW 
 DATE: 11 11 1990              CUMULATIVE TIME STEP:      11
 MODFLOW STRESS PERIOD      3     CURRENT TIME STEP:      42     ITERATIONS:       6

 -----------------------------------------------------------------------------------

   CUMULATIVE VOLUMES               L**3   RATES FOR THIS TIME STEP           L**3/T
   ------------------                      ------------------------

                                     IN                                         IN
                                     --                                         --
        PRECIPITATION =         703113.06          PRECIPITATION =                  
           STREAMFLOW =                               STREAMFLOW =                  
     GW BOUNDARY FLOW =                         GW BOUNDARY FLOW =                  


                                    OUT                                        OUT
                                    ---                                        ---
   EVAPOTRANSPIRATION =        1081421.60     EVAPOTRANSPIRATION =          12125.64
           STREAMFLOW =         367694.00             STREAMFLOW =           9639.08
     GW BOUNDARY FLOW =           1519.20       GW BOUNDARY FLOW =             35.93

   INFLOWS - OUTFLOWS =        -747521.73     INFLOWS - OUTFLOWS =         -21800.64
             --------                                   --------

 TOTAL STORAGE CHANGE =        -745744.89         STORAGE CHANGE =         -21803.27
       --------------                             --------------
         LAND SURFACE =            595.09           LAND SURFACE =          -1416.54
            SOIL ZONE =         429479.14              SOIL ZONE =          -5401.66
     UNSATURATED ZONE =       -1559404.89       UNSATURATED ZONE =         -19838.38
       SATURATED ZONE =         383585.76         SATURATED ZONE =           4853.31

 OVERALL BUDGET ERROR =          -1776.84           BUDGET ERROR =              2.63


  PERCENT DISCREPANCY =             -0.12    PERCENT DISCREPANCY =              0.01



1
 SUMMARY VOLUMETRIC BUDGET FOR GSFLOW 
 DATE: 11 18 1990              CUMULATIVE TIME STEP:      18
 MODFLOW STRESS PERIOD      3     CURRENT TIME STEP:      49     ITERATIONS:       6

 -----------------------------------------------------------------------------------

   CUMULATIVE VOLUMES               L**3   RATES FOR THIS TIME STEP           L**3/T
   ------------------                      ------------------------

                                     IN                                         IN
                                     --                                         --
        PRECIPITATION =         747883.35          PRECIPITATION =                  
           STREAMFLOW =                               STREAMFLOW =                  
     GW BOUNDARY FLOW =                         GW BOUNDARY FLOW =                  


                                    OUT                                        OUT
                                    ---                                        ---
   EVAPOTRANSPIRATION =        1153815.40     EVAPOTRANSPIRATION =           5053.70
           STREAMFLOW =         439322.92             STREAMFLOW =          10658.55
     GW BOUNDARY FLOW =           1770.52       GW BOUNDARY FLOW =             35.88

   INFLOWS - OUTFLOWS =        -847025.48     INFLOWS - OUTFLOWS =         -15748.13
             --------                                   --------

 TOTAL STORAGE CHANGE =        -845264.06         STORAGE CHANGE =         -15751.19
       --------------                             --------------
         LAND SURFACE =           7868.08           LAND SURFACE =          -3691.47
            SOIL ZONE =         411948.19              SOIL ZONE =           -677.79
     UNSATURATED ZONE =       -1692515.86       UNSATURATED ZONE =         -18565.51
       SATURATED ZONE =         427435.53         SATURATED ZONE =           7183.57

 OVERALL BUDGET ERROR =          -1761.42           BUDGET ERROR =              3.07


  PERCENT DISCREPANCY =             -0.11    PERCENT DISCREPANCY =              0.02



1
 SUMMARY VOLUMETRIC BUDGET FOR GSFLOW 
 DATE: 11 25 1990              CUMULATIVE TIME STEP:      25
 MODFLOW STRESS PERIOD      3     CURRENT TIME STEP:      56     ITERATIONS:       6

 -----------------------------------------------------------------------------------

   CUMULATIVE VOLUMES               L**3   RATES FOR THIS TIME STEP           L**3/T
   ------------------                      ------------------------

                                     IN                                         IN
                                     --                                         --
        PRECIPITATION =        1009043.38          PRECIPITATION =         186542.88
           STREAMFLOW =                               STREAMFLOW =                  
     GW BOUNDARY FLOW =                         GW BOUNDARY FLOW =                  


                                    OUT                                        OUT
                                    ---                                        ---
   EVAPOTRANSPIRATION =        1214242.68     EVAPOTRANSPIRATION =           3757.12
           STREAMFLOW =         515112.20             STREAMFLOW =          10739.28
     GW BOUNDARY FLOW =           2021.46       GW BOUNDARY FLOW =             35.79

   INFLOWS - OUTFLOWS =        -722332.96     INFLOWS - OUTFLOWS =         172010.68
             --------                                   --------

 TOTAL STORAGE CHANGE =        -720590.03         STORAGE CHANGE =         172008.51
       --------------                             --------------
         LAND SURFACE =          86180.68           LAND SURFACE =          69567.13
            SOIL ZONE =         536735.65              SOIL ZONE =         114159.35
     UNSATURATED ZONE =       -1820018.13       UNSATURATED ZONE =         -17911.27
       SATURATED ZONE =         476511.77         SATURATED ZONE =           6193.31

 OVERALL BUDGET ERROR =          -1742.93           BUDGET ERROR =              2.17


  PERCENT DISCREPANCY =             -0.10    PERCENT DISCREPANCY =              0.00



1
 SUMMARY VOLUMETRIC BUDGET FOR GSFLOW 
 DATE: 12 02 1990              CUMULATIVE TIME STEP:       2
 MODFLOW STRESS PERIOD      4     CURRENT TIME STEP:      63     ITERATIONS:       6

 -----------------------------------------------------------------------------------

   CUMULATIVE VOLUMES               L**3   RATES FOR THIS TIME STEP           L**3/T
   ------------------                      ------------------------

                                     IN                                         IN
                                     --                                         --
        PRECIPITATION =        1449284.55          PRECIPITATION =                  
           STREAMFLOW =                               STREAMFLOW =                  
     GW BOUNDARY FLOW =                         GW BOUNDARY FLOW =                  


                                    OUT                                        OUT
                                    ---                                        ---
   EVAPOTRANSPIRATION =        1220738.32     EVAPOTRANSPIRATION =            234.69
           STREAMFLOW =         592084.58             STREAMFLOW =          11046.31
     GW BOUNDARY FLOW =           2271.94       GW BOUNDARY FLOW =             35.77

   INFLOWS - OUTFLOWS =        -365810.29     INFLOWS - OUTFLOWS =         -11316.77
             --------                                   --------

 TOTAL STORAGE CHANGE =        -364082.29         STORAGE CHANGE =         -11318.64
       --------------                             --------------
         LAND SURFACE =         486845.62           LAND SURFACE =           -339.04
            SOIL ZONE =         570716.13              SOIL ZONE =            234.60
     UNSATURATED ZONE =       -1942831.61       UNSATURATED ZONE =         -17250.24
       SATURATED ZONE =         521187.56         SATURATED ZONE =           6036.05

 OVERALL BUDGET ERROR =          -1728.00           BUDGET ERROR =              1.87


  PERCENT DISCREPANCY =             -0.10    PERCENT DISCREPANCY =              0.02



1
 SUMMARY VOLUMETRIC BUDGET FOR GSFLOW 
 DATE: 12 09 1990              CUMULATIVE TIME STEP:       9
 MODFLOW STRESS PERIOD      4     CURRENT TIME STEP:      70     ITERATIONS:       6

 -----------------------------------------------------------------------------------

   CUMULATIVE VOLUMES               L**3   RATES FOR THIS TIME STEP           L**3/T
   ------------------                      ------------------------

                                     IN                                         IN
                                     --                                         --
        PRECIPITATION =        1449284.55          PRECIPITATION =                  
           STREAMFLOW =                               STREAMFLOW =                  
     GW BOUNDARY FLOW =                         GW BOUNDARY FLOW =                  


                                    OUT                                        OUT
                                    ---                                        ---
   EVAPOTRANSPIRATION =        1296572.23     EVAPOTRANSPIRATION =          13848.21
           STREAMFLOW =         669061.57             STREAMFLOW =          10757.55
     GW BOUNDARY FLOW =           2521.89       GW BOUNDARY FLOW =             35.64

   INFLOWS - OUTFLOWS =        -518871.14     INFLOWS - OUTFLOWS =         -24641.40
             --------                                   --------

 TOTAL STORAGE CHANGE =        -517152.96         STORAGE CHANGE =         -24642.13
       --------------                             --------------
         LAND SURFACE =          67215.41           LAND SURFACE =         -45889.70
            SOIL ZONE =         918828.50              SOIL ZONE =          33774.09
     UNSATURATED ZONE =       -2060653.46       UNSATURATED ZONE =         -16477.46
       SATURATED ZONE =         557456.60         SATURATED ZONE =           3950.94

 OVERALL BUDGET ERROR =          -1718.18           BUDGET ERROR =              0.72


  PERCENT DISCREPANCY =             -0.09    PERCENT DISCREPANCY =              0.00



1
 SUMMARY VOLUMETRIC BUDGET FOR GSFLOW 
 DATE: 12 16 1990              CUMULATIVE TIME STEP:      16
 MODFLOW STRESS PERIOD      4     CURRENT TIME STEP:      77     ITERATIONS:       5

 -----------------------------------------------------------------------------------

   CUMULATIVE VOLUMES               L**3   RATES FOR THIS TIME STEP           L**3/T
   ------------------                      ------------------------

                                     IN                                         IN
                                     --                                         --
        PRECIPITATION =        1804962.84          PRECIPITATION =                  
           STREAMFLOW =                               STREAMFLOW =                  
     GW BOUNDARY FLOW =                         GW BOUNDARY FLOW =                  


                                    OUT                                        OUT
                                    ---                                        ---
   EVAPOTRANSPIRATION =        1324849.18     EVAPOTRANSPIRATION =                  
           STREAMFLOW =         747584.03             STREAMFLOW =          11403.39
     GW BOUNDARY FLOW =           2771.27       GW BOUNDARY FLOW =             35.61

   INFLOWS - OUTFLOWS =        -270241.64     INFLOWS - OUTFLOWS =         -11438.99
             --------                                   --------

 TOTAL STORAGE CHANGE =        -268532.83         STORAGE CHANGE =         -11439.77
       --------------                             --------------
         LAND SURFACE =         252566.27           LAND SURFACE =                  
            SOIL ZONE =        1065040.72              SOIL ZONE =            148.76
     UNSATURATED ZONE =       -2173891.14       UNSATURATED ZONE =         -15909.22
       SATURATED ZONE =         587751.32         SATURATED ZONE =           4320.69

 OVERALL BUDGET ERROR =          -1708.81           BUDGET ERROR =              0.78


  PERCENT DISCREPANCY =             -0.08    PERCENT DISCREPANCY =              0.01



1
 SUMMARY VOLUMETRIC BUDGET FOR GSFLOW 
 DATE: 12 23 1990              CUMULATIVE TIME STEP:      23
 MODFLOW STRESS PERIOD      4     CURRENT TIME STEP:      84     ITERATIONS:       6

 -----------------------------------------------------------------------------------

   CUMULATIVE VOLUMES               L**3   RATES FOR THIS TIME STEP           L**3/T
   ------------------                      ------------------------

                                     IN                                         IN
                                     --                                         --
        PRECIPITATION =        2276236.55          PRECIPITATION =                  
           STREAMFLOW =                               STREAMFLOW =                  
     GW BOUNDARY FLOW =              0.08       GW BOUNDARY FLOW =              0.04


                                    OUT                                        OUT
                                    ---                                        ---
   EVAPOTRANSPIRATION =        1325906.78     EVAPOTRANSPIRATION =                  
           STREAMFLOW =         827843.05             STREAMFLOW =          11505.10
     GW BOUNDARY FLOW =           3020.29       GW BOUNDARY FLOW =             35.57

   INFLOWS - OUTFLOWS =         119466.51     INFLOWS - OUTFLOWS =         -11540.63
             --------                                   --------

 TOTAL STORAGE CHANGE =         121174.67         STORAGE CHANGE =         -11540.41
       --------------                             --------------
         LAND SURFACE =         722784.34           LAND SURFACE =                  
            SOIL ZONE =        1066127.36              SOIL ZONE =            158.94
     UNSATURATED ZONE =       -2283044.45       UNSATURATED ZONE =         -15345.22
       SATURATED ZONE =         615307.42         SATURATED ZONE =           3645.87

 OVERALL BUDGET ERROR =          -1708.16           BUDGET ERROR =             -0.22


  PERCENT DISCREPANCY =             -0.08    PERCENT DISCREPANCY =             -0.00



1
 SUMMARY VOLUMETRIC BUDGET FOR GSFLOW 
 DATE: 12 30 1990              CUMULATIVE TIME STEP:      30
 MODFLOW STRESS PERIOD      4     CURRENT TIME STEP:      91     ITERATIONS:       5

 -----------------------------------------------------------------------------------

   CUMULATIVE VOLUMES               L**3   RATES FOR THIS TIME STEP           L**3/T
   ------------------                      ------------------------

                                     IN                                         IN
                                     --                                         --
        PRECIPITATION =        2276236.55          PRECIPITATION =                  
           STREAMFLOW =                               STREAMFLOW =                  
     GW BOUNDARY FLOW =              0.77       GW BOUNDARY FLOW =              0.14


                                    OUT                                        OUT
                                    ---                                        ---
   EVAPOTRANSPIRATION =        1326474.28     EVAPOTRANSPIRATION =                  
           STREAMFLOW =         908775.67             STREAMFLOW =          11604.74
     GW BOUNDARY FLOW =           3269.39       GW BOUNDARY FLOW =             35.60

   INFLOWS - OUTFLOWS =          37717.97     INFLOWS - OUTFLOWS =         -11640.20
             --------                                   --------

 TOTAL STORAGE CHANGE =          39434.82         STORAGE CHANGE =         -11637.92
       --------------                             --------------
         LAND SURFACE =         722216.94           LAND SURFACE =                  
            SOIL ZONE =        1067284.25              SOIL ZONE =            170.54
     UNSATURATED ZONE =       -2388282.80       UNSATURATED ZONE =         -14800.59
       SATURATED ZONE =         638216.42         SATURATED ZONE =           2992.12

 OVERALL BUDGET ERROR =          -1716.85           BUDGET ERROR =             -2.28


  PERCENT DISCREPANCY =             -0.08    PERCENT DISCREPANCY =             -0.02



1
 SUMMARY VOLUMETRIC BUDGET FOR GSFLOW 
 DATE: 01 06 1991              CUMULATIVE TIME STEP:       6
 MODFLOW STRESS PERIOD      5     CURRENT TIME STEP:      98     ITERATIONS:       5

 -----------------------------------------------------------------------------------

   CUMULATIVE VOLUMES               L**3   RATES FOR THIS TIME STEP           L**3/T
   ------------------                      ------------------------

                                     IN                                         IN
                                     --                                         --
        PRECIPITATION =        2276236.55          PRECIPITATION =                  
           STREAMFLOW =                               STREAMFLOW =                  
     GW BOUNDARY FLOW =              2.09       GW BOUNDARY FLOW =              0.22


                                    OUT                                        OUT
                                    ---                                        ---
   EVAPOTRANSPIRATION =        1354406.80     EVAPOTRANSPIRATION =           3327.36
           STREAMFLOW =         990355.97             STREAMFLOW =          11686.62
     GW BOUNDARY FLOW =           3519.27       GW BOUNDARY FLOW =             35.75

   INFLOWS - OUTFLOWS =         -72043.40     INFLOWS - OUTFLOWS =         -15049.50
             --------                                   --------

 TOTAL STORAGE CHANGE =         -70302.66         STORAGE CHANGE =         -15045.07
       --------------                             --------------
         LAND SURFACE =         585426.34           LAND SURFACE =          -8558.21
            SOIL ZONE =        1177412.41              SOIL ZONE =           5413.75
     UNSATURATED ZONE =       -2489596.47       UNSATURATED ZONE =         -14270.57
       SATURATED ZONE =         656455.06         SATURATED ZONE =           2369.96

 OVERALL BUDGET ERROR =          -1740.74           BUDGET ERROR =             -4.43


  PERCENT DISCREPANCY =             -0.07    PERCENT DISCREPANCY =             -0.03



1
 SUMMARY VOLUMETRIC BUDGET FOR GSFLOW 
 DATE: 01 13 1991              CUMULATIVE TIME STEP:      13
 MODFLOW STRESS PERIOD      5     CURRENT TIME STEP:     105     ITERATIONS:       6

 -----------------------------------------------------------------------------------

   CUMULATIVE VOLUMES               L**3   RATES FOR THIS TIME STEP           L**3/T
   ------------------                      ------------------------

                                     IN                                         IN
                                     --                                         --
        PRECIPITATION =        2596386.94          PRECIPITATION =          10327.43
           STREAMFLOW =                               STREAMFLOW =                  
     GW BOUNDARY FLOW =              4.01       GW BOUNDARY FLOW =              0.31


                                    OUT                                        OUT
                                    ---                                        ---
   EVAPOTRANSPIRATION =        1422566.39     EVAPOTRANSPIRATION =          18921.35
           STREAMFLOW =        1072131.85             STREAMFLOW =          11600.30
     GW BOUNDARY FLOW =           3769.48       GW BOUNDARY FLOW =             35.73

   INFLOWS - OUTFLOWS =          97923.23     INFLOWS - OUTFLOWS =         -20229.63
             --------                                   --------

 TOTAL STORAGE CHANGE =          99695.44         STORAGE CHANGE =         -20226.67
       --------------                             --------------
         LAND SURFACE =         517131.91           LAND SURFACE =        -134708.00
            SOIL ZONE =        1500347.25              SOIL ZONE =         127098.88
     UNSATURATED ZONE =       -2586860.58       UNSATURATED ZONE =         -13688.20
       SATURATED ZONE =         669076.86         SATURATED ZONE =           1070.65

 OVERALL BUDGET ERROR =          -1772.21           BUDGET ERROR =             -2.96


  PERCENT DISCREPANCY =             -0.07    PERCENT DISCREPANCY =             -0.01



1
 SUMMARY VOLUMETRIC BUDGET FOR GSFLOW 
 DATE: 01 20 1991              CUMULATIVE TIME STEP:      20
 MODFLOW STRESS PERIOD      5     CURRENT TIME STEP:     112     ITERATIONS:       5

 -----------------------------------------------------------------------------------

   CUMULATIVE VOLUMES               L**3   RATES FOR THIS TIME STEP           L**3/T
   ------------------                      ------------------------

                                     IN                                         IN
                                     --                                         --
        PRECIPITATION =        2596386.94          PRECIPITATION =                  
           STREAMFLOW =                               STREAMFLOW =                  
     GW BOUNDARY FLOW =              6.54       GW BOUNDARY FLOW =              0.40


                                    OUT                                        OUT
                                    ---                                        ---
   EVAPOTRANSPIRATION =        1501140.77     EVAPOTRANSPIRATION =           2597.59
           STREAMFLOW =        1154465.88             STREAMFLOW =          11796.02
     GW BOUNDARY FLOW =           4019.71       GW BOUNDARY FLOW =             35.75

   INFLOWS - OUTFLOWS =         -63232.87     INFLOWS - OUTFLOWS =         -14428.96
             --------                                   --------

 TOTAL STORAGE CHANGE =         -61414.18         STORAGE CHANGE =         -14421.14
       --------------                             --------------
         LAND SURFACE =         342485.20           LAND SURFACE =           -464.47
            SOIL ZONE =        1598408.23              SOIL ZONE =          -1911.42
     UNSATURATED ZONE =       -2680237.92       UNSATURATED ZONE =         -13120.73
       SATURATED ZONE =         677930.31         SATURATED ZONE =           1075.48

 OVERALL BUDGET ERROR =          -1818.69           BUDGET ERROR =             -7.82


  PERCENT DISCREPANCY =             -0.07    PERCENT DISCREPANCY =             -0.05



1
 SUMMARY VOLUMETRIC BUDGET FOR GSFLOW 
 DATE: 01 27 1991              CUMULATIVE TIME STEP:      27
 MODFLOW STRESS PERIOD      5     CURRENT TIME STEP:     119     ITERATIONS:       5

 -----------------------------------------------------------------------------------

   CUMULATIVE VOLUMES               L**3   RATES FOR THIS TIME STEP           L**3/T
   ------------------                      ------------------------

                                     IN                                         IN
                                     --                                         --
        PRECIPITATION =        2596386.94          PRECIPITATION =                  
           STREAMFLOW =                               STREAMFLOW =                  
     GW BOUNDARY FLOW =              9.65       GW BOUNDARY FLOW =              0.48


                                    OUT                                        OUT
                                    ---                                        ---
   EVAPOTRANSPIRATION =        1527998.16     EVAPOTRANSPIRATION =           1840.19
           STREAMFLOW =        1237252.54             STREAMFLOW =          11859.39
     GW BOUNDARY FLOW =           4269.91       GW BOUNDARY FLOW =             35.74

   INFLOWS - OUTFLOWS =        -173124.02     INFLOWS - OUTFLOWS =         -13734.84
             --------                                   --------

 TOTAL STORAGE CHANGE =        -171244.49         STORAGE CHANGE =         -13725.76
       --------------                             --------------
         LAND SURFACE =         307904.95           LAND SURFACE =           -546.56
            SOIL ZONE =        1607881.53              SOIL ZONE =          -1084.64
     UNSATURATED ZONE =       -2770120.49       UNSATURATED ZONE =         -12625.54
       SATURATED ZONE =         683089.52         SATURATED ZONE =            530.98

 OVERALL BUDGET ERROR =          -1879.53           BUDGET ERROR =             -9.07


  PERCENT DISCREPANCY =             -0.07    PERCENT DISCREPANCY =             -0.07



1
 SUMMARY VOLUMETRIC BUDGET FOR GSFLOW 
 DATE: 02 03 1991              CUMULATIVE TIME STEP:       3
 MODFLOW STRESS PERIOD      6     CURRENT TIME STEP:     126     ITERATIONS:       5

 -----------------------------------------------------------------------------------

   CUMULATIVE VOLUMES               L**3   RATES FOR THIS TIME STEP           L**3/T
   ------------------                      ------------------------

                                     IN                                         IN
                                     --                                         --
        PRECIPITATION =        3228422.31          PRECIPITATION =          30459.53
           STREAMFLOW =                               STREAMFLOW =                  
     GW BOUNDARY FLOW =             13.30       GW BOUNDARY FLOW =              0.55


                                    OUT                                        OUT
                                    ---                                        ---
   EVAPOTRANSPIRATION =        1636954.89     EVAPOTRANSPIRATION =          21776.56
           STREAMFLOW =        1320411.21             STREAMFLOW =          11906.58
     GW BOUNDARY FLOW =           4520.04       GW BOUNDARY FLOW =             35.73

   INFLOWS - OUTFLOWS =         266549.47     INFLOWS - OUTFLOWS =          -3258.78
             --------                                   --------

 TOTAL STORAGE CHANGE =         268499.25         STORAGE CHANGE =          -3248.22
       --------------                             --------------
         LAND SURFACE =         148156.03           LAND SURFACE =         -26520.09
            SOIL ZONE =        2293358.99              SOIL ZONE =          35557.54
     UNSATURATED ZONE =       -2856744.32       UNSATURATED ZONE =         -12166.03
       SATURATED ZONE =         683728.55         SATURATED ZONE =           -119.64

 OVERALL BUDGET ERROR =          -1949.78           BUDGET ERROR =            -10.56


  PERCENT DISCREPANCY =             -0.06    PERCENT DISCREPANCY =             -0.03



1
 SUMMARY VOLUMETRIC BUDGET FOR GSFLOW 
 DATE: 02 10 1991              CUMULATIVE TIME STEP:      10
 MODFLOW STRESS PERIOD      6     CURRENT TIME STEP:     133     ITERATIONS:       5

 -----------------------------------------------------------------------------------

   CUMULATIVE VOLUMES               L**3   RATES FOR THIS TIME STEP           L**3/T
   ------------------                      ------------------------

                                     IN                                         IN
                                     --                                         --
        PRECIPITATION =        3510173.01          PRECIPITATION =                  
           STREAMFLOW =                               STREAMFLOW =                  
     GW BOUNDARY FLOW =             17.48       GW BOUNDARY FLOW =              0.63


                                    OUT                                        OUT
                                    ---                                        ---
   EVAPOTRANSPIRATION =        1806649.23     EVAPOTRANSPIRATION =          25967.88
           STREAMFLOW =        1403960.50             STREAMFLOW =          11957.76
     GW BOUNDARY FLOW =           4770.05       GW BOUNDARY FLOW =             35.72

   INFLOWS - OUTFLOWS =         294810.70     INFLOWS - OUTFLOWS =         -37960.73
             --------                                   --------

 TOTAL STORAGE CHANGE =         296839.19         STORAGE CHANGE =         -37948.87
       --------------                             --------------
         LAND SURFACE =          66705.78           LAND SURFACE =          -7439.35
            SOIL ZONE =        2488713.36              SOIL ZONE =         -18263.40
     UNSATURATED ZONE =       -2939819.66       UNSATURATED ZONE =         -11672.24
       SATURATED ZONE =         681239.71         SATURATED ZONE =           -573.88

 OVERALL BUDGET ERROR =          -2028.48           BUDGET ERROR =            -11.86


  PERCENT DISCREPANCY =             -0.06    PERCENT DISCREPANCY =             -0.03



1
 SUMMARY VOLUMETRIC BUDGET FOR GSFLOW 
 DATE: 02 17 1991              CUMULATIVE TIME STEP:      17
 MODFLOW STRESS PERIOD      6     CURRENT TIME STEP:     140     ITERATIONS:       8

 -----------------------------------------------------------------------------------

   CUMULATIVE VOLUMES               L**3   RATES FOR THIS TIME STEP           L**3/T
   ------------------                      ------------------------

                                     IN                                         IN
                                     --                                         --
        PRECIPITATION =        3510173.01          PRECIPITATION =                  
           STREAMFLOW =                               STREAMFLOW =                  
     GW BOUNDARY FLOW =             22.15       GW BOUNDARY FLOW =              0.70


                                    OUT                                        OUT
                                    ---                                        ---
   EVAPOTRANSPIRATION =        2052212.20     EVAPOTRANSPIRATION =          24098.24
           STREAMFLOW =        1486802.98             STREAMFLOW =          11679.85
     GW BOUNDARY FLOW =           5019.94       GW BOUNDARY FLOW =             35.66

   INFLOWS - OUTFLOWS =         -33839.95     INFLOWS - OUTFLOWS =         -35813.06
             --------                                   --------

 TOTAL STORAGE CHANGE =         -31746.37         STORAGE CHANGE =         -35811.77
       --------------                             --------------
         LAND SURFACE =          14950.27           LAND SURFACE =           -975.14
            SOIL ZONE =        2296468.15              SOIL ZONE =         -22970.63
     UNSATURATED ZONE =       -3019249.99       UNSATURATED ZONE =         -11063.02
       SATURATED ZONE =         676085.21         SATURATED ZONE =           -802.98

 OVERALL BUDGET ERROR =          -2093.58           BUDGET ERROR =             -1.29


  PERCENT DISCREPANCY =             -0.06    PERCENT DISCREPANCY =             -0.00



1
 SUMMARY VOLUMETRIC BUDGET FOR GSFLOW 
 DATE: 02 24 1991              CUMULATIVE TIME STEP:      24
 MODFLOW STRESS PERIOD      6     CURRENT TIME STEP:     147     ITERATIONS:       5

 -----------------------------------------------------------------------------------

   CUMULATIVE VOLUMES               L**3   RATES FOR THIS TIME STEP           L**3/T
   ------------------                      ------------------------

                                     IN                                         IN
                                     --                                         --
        PRECIPITATION =        3510173.01          PRECIPITATION =                  
           STREAMFLOW =                               STREAMFLOW =                  
     GW BOUNDARY FLOW =             27.30       GW BOUNDARY FLOW =              0.76


                                    OUT                                        OUT
                                    ---                                        ---
   EVAPOTRANSPIRATION =        2268179.82     EVAPOTRANSPIRATION =          21972.50
           STREAMFLOW =        1570272.50             STREAMFLOW =          11955.37
     GW BOUNDARY FLOW =           5268.96       GW BOUNDARY FLOW =             35.51

   INFLOWS - OUTFLOWS =        -333520.98     INFLOWS - OUTFLOWS =         -33962.61
             --------                                   --------

 TOTAL STORAGE CHANGE =        -331351.96         STORAGE CHANGE =         -33947.32
       --------------                             --------------
         LAND SURFACE =           6004.72           LAND SURFACE =           -187.76
            SOIL ZONE =        2090811.47              SOIL ZONE =         -21553.94
     UNSATURATED ZONE =       -3095203.46       UNSATURATED ZONE =         -10679.77
       SATURATED ZONE =         667035.32         SATURATED ZONE =          -1525.85

 OVERALL BUDGET ERROR =          -2169.02           BUDGET ERROR =            -15.29


  PERCENT DISCREPANCY =             -0.06    PERCENT DISCREPANCY =             -0.05



1
 SUMMARY VOLUMETRIC BUDGET FOR GSFLOW 
 DATE: 03 03 1991              CUMULATIVE TIME STEP:       3
 MODFLOW STRESS PERIOD      7     CURRENT TIME STEP:     154     ITERATIONS:       7

 -----------------------------------------------------------------------------------

   CUMULATIVE VOLUMES               L**3   RATES FOR THIS TIME STEP           L**3/T
   ------------------                      ------------------------

                                     IN                                         IN
                                     --                                         --
        PRECIPITATION =        6220189.63          PRECIPITATION =        1243187.24
           STREAMFLOW =                               STREAMFLOW =                  
     GW BOUNDARY FLOW =             32.90       GW BOUNDARY FLOW =              0.83


                                    OUT                                        OUT
                                    ---                                        ---
   EVAPOTRANSPIRATION =        2421480.38     EVAPOTRANSPIRATION =           8349.57
           STREAMFLOW =        1652473.27             STREAMFLOW =          11715.21
     GW BOUNDARY FLOW =           5516.77       GW BOUNDARY FLOW =             35.32

   INFLOWS - OUTFLOWS =        2140752.10     INFLOWS - OUTFLOWS =        1223087.98
             --------                                   --------

 TOTAL STORAGE CHANGE =        2142988.44         STORAGE CHANGE =        1223091.22
       --------------                             --------------
         LAND SURFACE =        2351702.99           LAND SURFACE =         893791.18
            SOIL ZONE =        2305808.92              SOIL ZONE =         341862.14
     UNSATURATED ZONE =       -3168160.07       UNSATURATED ZONE =         -10254.88
       SATURATED ZONE =         653636.59         SATURATED ZONE =          -2307.22

 OVERALL BUDGET ERROR =          -2236.33           BUDGET ERROR =             -3.24


  PERCENT DISCREPANCY =             -0.04    PERCENT DISCREPANCY =             -0.00



1
 SUMMARY VOLUMETRIC BUDGET FOR GSFLOW 
 DATE: 03 10 1991              CUMULATIVE TIME STEP:      10
 MODFLOW STRESS PERIOD      7     CURRENT TIME STEP:     161     ITERATIONS:       5

 -----------------------------------------------------------------------------------

   CUMULATIVE VOLUMES               L**3   RATES FOR THIS TIME STEP           L**3/T
   ------------------                      ------------------------

                                     IN                                         IN
                                     --                                         --
        PRECIPITATION =        8746030.42          PRECIPITATION =          32888.55
           STREAMFLOW =                               STREAMFLOW =                  
     GW BOUNDARY FLOW =             38.93       GW BOUNDARY FLOW =              0.89


                                    OUT                                        OUT
                                    ---                                        ---
   EVAPOTRANSPIRATION =        2485606.97     EVAPOTRANSPIRATION =           7391.47
           STREAMFLOW =        1758014.94             STREAMFLOW =          12550.04
     GW BOUNDARY FLOW =           5764.11       GW BOUNDARY FLOW =             35.23

   INFLOWS - OUTFLOWS =        4496683.34     INFLOWS - OUTFLOWS =          12912.70
             --------                                   --------

 TOTAL STORAGE CHANGE =        4498994.01         STORAGE CHANGE =          12930.91
       --------------                             --------------
         LAND SURFACE =        2489047.46           LAND SURFACE =         -20139.62
            SOIL ZONE =        4556829.38              SOIL ZONE =          36779.57
     UNSATURATED ZONE =       -3186152.17       UNSATURATED ZONE =          -1459.81
       SATURATED ZONE =         639269.35         SATURATED ZONE =          -2249.23

 OVERALL BUDGET ERROR =          -2310.67           BUDGET ERROR =            -18.21


  PERCENT DISCREPANCY =             -0.03    PERCENT DISCREPANCY =             -0.06



1
 SUMMARY VOLUMETRIC BUDGET FOR GSFLOW 
 DATE: 03 17 1991              CUMULATIVE TIME STEP:      17
 MODFLOW STRESS PERIOD      7     CURRENT TIME STEP:     168     ITERATIONS:       5

 -----------------------------------------------------------------------------------

   CUMULATIVE VOLUMES               L**3   RATES FOR THIS TIME STEP           L**3/T
   ------------------                      ------------------------

                                     IN                                         IN
                                     --                                         --
        PRECIPITATION =        9897129.71          PRECIPITATION =         157865.04
           STREAMFLOW =                               STREAMFLOW =                  
     GW BOUNDARY FLOW =             45.40       GW BOUNDARY FLOW =              0.95


                                    OUT                                        OUT
                                    ---                                        ---
   EVAPOTRANSPIRATION =        2509070.29     EVAPOTRANSPIRATION =           6884.55
           STREAMFLOW =        1847210.43             STREAMFLOW =          12801.38
     GW BOUNDARY FLOW =           6010.28       GW BOUNDARY FLOW =             35.11

   INFLOWS - OUTFLOWS =        5534884.11     INFLOWS - OUTFLOWS =         138144.95
             --------                                   --------

 TOTAL STORAGE CHANGE =        5537305.91         STORAGE CHANGE =         138164.38
       --------------                             --------------
         LAND SURFACE =        3616636.04           LAND SURFACE =         151296.14
            SOIL ZONE =        4495097.24              SOIL ZONE =          -8456.66
     UNSATURATED ZONE =       -3197968.64       UNSATURATED ZONE =          -2089.59
       SATURATED ZONE =         623541.27         SATURATED ZONE =          -2585.50

 OVERALL BUDGET ERROR =          -2421.80           BUDGET ERROR =            -19.42


  PERCENT DISCREPANCY =             -0.02    PERCENT DISCREPANCY =             -0.01



1
 SUMMARY VOLUMETRIC BUDGET FOR GSFLOW 
 DATE: 03 24 1991              CUMULATIVE TIME STEP:      24
 MODFLOW STRESS PERIOD      7     CURRENT TIME STEP:     175     ITERATIONS:       5

 -----------------------------------------------------------------------------------

   CUMULATIVE VOLUMES               L**3   RATES FOR THIS TIME STEP           L**3/T
   ------------------                      ------------------------

                                     IN                                         IN
                                     --                                         --
        PRECIPITATION =        1.1673D+07          PRECIPITATION =        1230031.83
           STREAMFLOW =                               STREAMFLOW =                  
     GW BOUNDARY FLOW =             52.27       GW BOUNDARY FLOW =              1.01


                                    OUT                                        OUT
                                    ---                                        ---
   EVAPOTRANSPIRATION =        2543703.11     EVAPOTRANSPIRATION =           4289.21
           STREAMFLOW =        1938407.68             STREAMFLOW =          13199.53
     GW BOUNDARY FLOW =           6255.58       GW BOUNDARY FLOW =             34.99

   INFLOWS - OUTFLOWS =        7184797.40     INFLOWS - OUTFLOWS =        1212509.10
             --------                                   --------

 TOTAL STORAGE CHANGE =        7187334.96         STORAGE CHANGE =        1212529.03
       --------------                             --------------
         LAND SURFACE =        5346769.69           LAND SURFACE =        1227877.70
            SOIL ZONE =        4448756.72              SOIL ZONE =         -10342.98
     UNSATURATED ZONE =       -3213884.85       UNSATURATED ZONE =          -2381.39
       SATURATED ZONE =         605693.40         SATURATED ZONE =          -2624.30

 OVERALL BUDGET ERROR =          -2537.56           BUDGET ERROR =            -19.93


  PERCENT DISCREPANCY =             -0.02    PERCENT DISCREPANCY =             -0.00



1
 SUMMARY VOLUMETRIC BUDGET FOR GSFLOW 
 DATE: 03 31 1991              CUMULATIVE TIME STEP:      31
 MODFLOW STRESS PERIOD      7     CURRENT TIME STEP:     182     ITERATIONS:       5

 -----------------------------------------------------------------------------------

   CUMULATIVE VOLUMES               L**3   RATES FOR THIS TIME STEP           L**3/T
   ------------------                      ------------------------

                                     IN                                         IN
                                     --                                         --
        PRECIPITATION =        1.2495D+07          PRECIPITATION =                  
           STREAMFLOW =                               STREAMFLOW =                  
     GW BOUNDARY FLOW =             59.53       GW BOUNDARY FLOW =              1.06


                                    OUT                                        OUT
                                    ---                                        ---
   EVAPOTRANSPIRATION =        2664721.73     EVAPOTRANSPIRATION =          47925.31
           STREAMFLOW =        2033514.17             STREAMFLOW =          14256.32
     GW BOUNDARY FLOW =           6500.18       GW BOUNDARY FLOW =             34.92

   INFLOWS - OUTFLOWS =        7790648.73     INFLOWS - OUTFLOWS =         -62215.49
             --------                                   --------

 TOTAL STORAGE CHANGE =        7793326.24         STORAGE CHANGE =         -62195.21
       --------------                             --------------
         LAND SURFACE =        5891403.39           LAND SURFACE =        -150773.76
            SOIL ZONE =        4544423.69              SOIL ZONE =          92452.57
     UNSATURATED ZONE =       -3229571.09       UNSATURATED ZONE =          -1187.65
       SATURATED ZONE =         587070.24         SATURATED ZONE =          -2686.37

 OVERALL BUDGET ERROR =          -2677.51           BUDGET ERROR =            -20.28


  PERCENT DISCREPANCY =             -0.02    PERCENT DISCREPANCY =             -0.03



1
 SUMMARY VOLUMETRIC BUDGET FOR GSFLOW 
 DATE: 04 07 1991              CUMULATIVE TIME STEP:       7
 MODFLOW STRESS PERIOD      8     CURRENT TIME STEP:     189     ITERATIONS:       7

 -----------------------------------------------------------------------------------

   CUMULATIVE VOLUMES               L**3   RATES FOR THIS TIME STEP           L**3/T
   ------------------                      ------------------------

                                     IN                                         IN
                                     --                                         --
        PRECIPITATION =        1.3018D+07          PRECIPITATION =                  
           STREAMFLOW =                               STREAMFLOW =                  
     GW BOUNDARY FLOW =             67.17       GW BOUNDARY FLOW =              1.11


                                    OUT                                        OUT
                                    ---                                        ---
   EVAPOTRANSPIRATION =        2972605.00     EVAPOTRANSPIRATION =          15898.60
           STREAMFLOW =        2261177.15             STREAMFLOW =          42194.72
     GW BOUNDARY FLOW =           6746.26       GW BOUNDARY FLOW =             35.31

   INFLOWS - OUTFLOWS =        7777275.49     INFLOWS - OUTFLOWS =         -58127.52
             --------                                   --------

 TOTAL STORAGE CHANGE =        7780028.54         STORAGE CHANGE =         -58123.02
       --------------                             --------------
         LAND SURFACE =        4251813.72           LAND SURFACE =         -72897.15
            SOIL ZONE =        6151898.72              SOIL ZONE =           5380.54
     UNSATURATED ZONE =       -3195166.85       UNSATURATED ZONE =          11042.26
       SATURATED ZONE =         571482.95         SATURATED ZONE =          -1648.66

 OVERALL BUDGET ERROR =          -2753.05           BUDGET ERROR =             -4.51


  PERCENT DISCREPANCY =             -0.02    PERCENT DISCREPANCY =             -0.01



1
 SUMMARY VOLUMETRIC BUDGET FOR GSFLOW 
 DATE: 04 14 1991              CUMULATIVE TIME STEP:      14
 MODFLOW STRESS PERIOD      8     CURRENT TIME STEP:     196     ITERATIONS:       7

 -----------------------------------------------------------------------------------

   CUMULATIVE VOLUMES               L**3   RATES FOR THIS TIME STEP           L**3/T
   ------------------                      ------------------------

                                     IN                                         IN
                                     --                                         --
        PRECIPITATION =        1.3018D+07          PRECIPITATION =                  
           STREAMFLOW =                               STREAMFLOW =                  
     GW BOUNDARY FLOW =             75.13       GW BOUNDARY FLOW =              1.16


                                    OUT                                        OUT
                                    ---                                        ---
   EVAPOTRANSPIRATION =        3156527.83     EVAPOTRANSPIRATION =          42060.22
           STREAMFLOW =        2687858.04             STREAMFLOW =          74127.96
     GW BOUNDARY FLOW =           6994.65       GW BOUNDARY FLOW =             35.60

   INFLOWS - OUTFLOWS =        7166431.34     INFLOWS - OUTFLOWS =        -116222.62
             --------                                   --------

 TOTAL STORAGE CHANGE =        7169219.18         STORAGE CHANGE =        -116219.72
       --------------                             --------------
         LAND SURFACE =        3591590.25           LAND SURFACE =        -191145.76
            SOIL ZONE =        6136485.47              SOIL ZONE =          65847.56
     UNSATURATED ZONE =       -3121261.12       UNSATURATED ZONE =          10122.68
       SATURATED ZONE =         562404.57         SATURATED ZONE =          -1044.20

 OVERALL BUDGET ERROR =          -2787.83           BUDGET ERROR =             -2.90


  PERCENT DISCREPANCY =             -0.02    PERCENT DISCREPANCY =             -0.00



1
 SUMMARY VOLUMETRIC BUDGET FOR GSFLOW 
 DATE: 04 21 1991              CUMULATIVE TIME STEP:      21
 MODFLOW STRESS PERIOD      8     CURRENT TIME STEP:     203     ITERATIONS:       9

 -----------------------------------------------------------------------------------

   CUMULATIVE VOLUMES               L**3   RATES FOR THIS TIME STEP           L**3/T
   ------------------                      ------------------------

                                     IN                                         IN
                                     --                                         --
        PRECIPITATION =        1.3034D+07          PRECIPITATION =                  
           STREAMFLOW =                               STREAMFLOW =                  
     GW BOUNDARY FLOW =             83.39       GW BOUNDARY FLOW =              1.20


                                    OUT                                        OUT
                                    ---                                        ---
   EVAPOTRANSPIRATION =        3410148.84     EVAPOTRANSPIRATION =          46843.68
           STREAMFLOW =        3240399.35             STREAMFLOW =          90884.08
     GW BOUNDARY FLOW =           7243.72       GW BOUNDARY FLOW =             35.67

   INFLOWS - OUTFLOWS =        6376353.57     INFLOWS - OUTFLOWS =        -137762.23
             --------                                   --------

 TOTAL STORAGE CHANGE =        6379156.92         STORAGE CHANGE =        -137761.31
       --------------                             --------------
         LAND SURFACE =        2434561.49           LAND SURFACE =        -213934.43
            SOIL ZONE =        6434633.33              SOIL ZONE =          64660.77
     UNSATURATED ZONE =       -3047209.07       UNSATURATED ZONE =          12044.74
       SATURATED ZONE =         557171.18         SATURATED ZONE =           -532.38

 OVERALL BUDGET ERROR =          -2803.35           BUDGET ERROR =             -0.92


  PERCENT DISCREPANCY =             -0.02    PERCENT DISCREPANCY =             -0.00



1
 SUMMARY VOLUMETRIC BUDGET FOR GSFLOW 
 DATE: 04 28 1991              CUMULATIVE TIME STEP:      28
 MODFLOW STRESS PERIOD      8     CURRENT TIME STEP:     210     ITERATIONS:      10

 -----------------------------------------------------------------------------------

   CUMULATIVE VOLUMES               L**3   RATES FOR THIS TIME STEP           L**3/T
   ------------------                      ------------------------

                                     IN                                         IN
                                     --                                         --
        PRECIPITATION =        1.3303D+07          PRECIPITATION =                  
           STREAMFLOW =                               STREAMFLOW =                  
     GW BOUNDARY FLOW =             91.92       GW BOUNDARY FLOW =              1.24


                                    OUT                                        OUT
                                    ---                                        ---
   EVAPOTRANSPIRATION =        3678250.79     EVAPOTRANSPIRATION =          58070.50
           STREAMFLOW =        3889749.35             STREAMFLOW =          92143.47
     GW BOUNDARY FLOW =           7493.10       GW BOUNDARY FLOW =             35.57

   INFLOWS - OUTFLOWS =        5728029.19     INFLOWS - OUTFLOWS =        -150248.30
             --------                                   --------

 TOTAL STORAGE CHANGE =        5730847.09         STORAGE CHANGE =        -150247.67
       --------------                             --------------
         LAND SURFACE =        1696015.42           LAND SURFACE =        -133870.57
            SOIL ZONE =        6442727.78              SOIL ZONE =         -28033.52
     UNSATURATED ZONE =       -2963233.79       UNSATURATED ZONE =          11259.63
       SATURATED ZONE =         555337.69         SATURATED ZONE =            396.79

 OVERALL BUDGET ERROR =          -2817.89           BUDGET ERROR =             -0.63


  PERCENT DISCREPANCY =             -0.02    PERCENT DISCREPANCY =             -0.00



1
 SUMMARY VOLUMETRIC BUDGET FOR GSFLOW 
 DATE: 05 05 1991              CUMULATIVE TIME STEP:       5
 MODFLOW STRESS PERIOD      9     CURRENT TIME STEP:     217     ITERATIONS:       7

 -----------------------------------------------------------------------------------

   CUMULATIVE VOLUMES               L**3   RATES FOR THIS TIME STEP           L**3/T
   ------------------                      ------------------------

                                     IN                                         IN
                                     --                                         --
        PRECIPITATION =        1.3510D+07          PRECIPITATION =                  
           STREAMFLOW =                               STREAMFLOW =                  
     GW BOUNDARY FLOW =            100.72       GW BOUNDARY FLOW =              1.27


                                    OUT                                        OUT
                                    ---                                        ---
   EVAPOTRANSPIRATION =        4055008.56     EVAPOTRANSPIRATION =          90182.26
           STREAMFLOW =        4462744.38             STREAMFLOW =          83307.27
     GW BOUNDARY FLOW =           7740.79       GW BOUNDARY FLOW =             35.33

   INFLOWS - OUTFLOWS =        4984315.12     INFLOWS - OUTFLOWS =        -173523.58
             --------                                   --------

 TOTAL STORAGE CHANGE =        4987141.68         STORAGE CHANGE =        -173522.93
       --------------                             --------------
         LAND SURFACE =        1002302.70           LAND SURFACE =        -146993.92
            SOIL ZONE =        6321849.64              SOIL ZONE =         -36478.77
     UNSATURATED ZONE =       -2890879.05       UNSATURATED ZONE =          10064.26
       SATURATED ZONE =         553868.39         SATURATED ZONE =           -114.50

 OVERALL BUDGET ERROR =          -2826.56           BUDGET ERROR =             -0.65


  PERCENT DISCREPANCY =             -0.02    PERCENT DISCREPANCY =             -0.00



1
 SUMMARY VOLUMETRIC BUDGET FOR GSFLOW 
 DATE: 05 12 1991              CUMULATIVE TIME STEP:      12
 MODFLOW STRESS PERIOD      9     CURRENT TIME STEP:     224     ITERATIONS:       7

 -----------------------------------------------------------------------------------

   CUMULATIVE VOLUMES               L**3   RATES FOR THIS TIME STEP           L**3/T
   ------------------                      ------------------------

                                     IN                                         IN
                                     --                                         --
        PRECIPITATION =        1.4029D+07          PRECIPITATION =                  
           STREAMFLOW =                               STREAMFLOW =                  
     GW BOUNDARY FLOW =            109.79       GW BOUNDARY FLOW =              1.31


                                    OUT                                        OUT
                                    ---                                        ---
   EVAPOTRANSPIRATION =        4450395.83     EVAPOTRANSPIRATION =          68750.33
           STREAMFLOW =        5000047.10             STREAMFLOW =          85689.73
     GW BOUNDARY FLOW =           7986.84       GW BOUNDARY FLOW =             35.17

   INFLOWS - OUTFLOWS =        4570902.18     INFLOWS - OUTFLOWS =        -154473.92
             --------                                   --------

 TOTAL STORAGE CHANGE =        4573730.44         STORAGE CHANGE =        -154473.41
       --------------                             --------------
         LAND SURFACE =         554756.95           LAND SURFACE =        -204088.73
            SOIL ZONE =        6293429.73              SOIL ZONE =          40894.59
     UNSATURATED ZONE =       -2829324.26       UNSATURATED ZONE =           8703.77
       SATURATED ZONE =         554868.02         SATURATED ZONE =             16.96

 OVERALL BUDGET ERROR =          -2828.26           BUDGET ERROR =             -0.51


  PERCENT DISCREPANCY =             -0.02    PERCENT DISCREPANCY =             -0.00



1
 SUMMARY VOLUMETRIC BUDGET FOR GSFLOW 
 DATE: 05 19 1991              CUMULATIVE TIME STEP:      19
 MODFLOW STRESS PERIOD      9     CURRENT TIME STEP:     231     ITERATIONS:       7

 -----------------------------------------------------------------------------------

   CUMULATIVE VOLUMES               L**3   RATES FOR THIS TIME STEP           L**3/T
   ------------------                      ------------------------

                                     IN                                         IN
                                     --                                         --
        PRECIPITATION =        1.4365D+07          PRECIPITATION =                  
           STREAMFLOW =                               STREAMFLOW =                  
     GW BOUNDARY FLOW =            119.13       GW BOUNDARY FLOW =              1.35


                                    OUT                                        OUT
                                    ---                                        ---
   EVAPOTRANSPIRATION =        4888831.53     EVAPOTRANSPIRATION =          20369.32
           STREAMFLOW =        5448433.01             STREAMFLOW =          55462.07
     GW BOUNDARY FLOW =           8230.60       GW BOUNDARY FLOW =             34.65

   INFLOWS - OUTFLOWS =        4020002.30     INFLOWS - OUTFLOWS =         -75864.69
             --------                                   --------

 TOTAL STORAGE CHANGE =        4022831.49         STORAGE CHANGE =         -75864.93
       --------------                             --------------
         LAND SURFACE =         218155.86           LAND SURFACE =         -22216.95
            SOIL ZONE =        6030237.67              SOIL ZONE =         -59327.71
     UNSATURATED ZONE =       -2781101.46       UNSATURATED ZONE =           5552.82
       SATURATED ZONE =         555539.42         SATURATED ZONE =            126.91

 OVERALL BUDGET ERROR =          -2829.19           BUDGET ERROR =              0.25


  PERCENT DISCREPANCY =             -0.02    PERCENT DISCREPANCY =              0.00



1
 SUMMARY VOLUMETRIC BUDGET FOR GSFLOW 
 DATE: 05 26 1991              CUMULATIVE TIME STEP:      26
 MODFLOW STRESS PERIOD      9     CURRENT TIME STEP:     238     ITERATIONS:       6

 -----------------------------------------------------------------------------------

   CUMULATIVE VOLUMES               L**3   RATES FOR THIS TIME STEP           L**3/T
   ------------------                      ------------------------

                                     IN                                         IN
                                     --                                         --
        PRECIPITATION =        1.4426D+07          PRECIPITATION =                  
           STREAMFLOW =                               STREAMFLOW =                  
     GW BOUNDARY FLOW =            128.74       GW BOUNDARY FLOW =              1.39


                                    OUT                                        OUT
                                    ---                                        ---
   EVAPOTRANSPIRATION =        5573307.76     EVAPOTRANSPIRATION =          76940.71
           STREAMFLOW =        5754041.35             STREAMFLOW =          31290.45
     GW BOUNDARY FLOW =           8471.27       GW BOUNDARY FLOW =             34.13

   INFLOWS - OUTFLOWS =        3090805.97     INFLOWS - OUTFLOWS =        -108263.90
             --------                                   --------

 TOTAL STORAGE CHANGE =        3093634.84         STORAGE CHANGE =        -108262.95
       --------------                             --------------
         LAND SURFACE =          51493.15           LAND SURFACE =          -7682.13
            SOIL ZONE =        5248542.46              SOIL ZONE =         -99901.99
     UNSATURATED ZONE =       -2760198.34       UNSATURATED ZONE =            -67.89
       SATURATED ZONE =         553797.57         SATURATED ZONE =           -610.95

 OVERALL BUDGET ERROR =          -2828.88           BUDGET ERROR =             -0.94


  PERCENT DISCREPANCY =             -0.02    PERCENT DISCREPANCY =             -0.00



1
 SUMMARY VOLUMETRIC BUDGET FOR GSFLOW 
 DATE: 06 02 1991              CUMULATIVE TIME STEP:       2
 MODFLOW STRESS PERIOD     10     CURRENT TIME STEP:     245     ITERATIONS:       6

 -----------------------------------------------------------------------------------

   CUMULATIVE VOLUMES               L**3   RATES FOR THIS TIME STEP           L**3/T
   ------------------                      ------------------------

                                     IN                                         IN
                                     --                                         --
        PRECIPITATION =        1.4671D+07          PRECIPITATION =                  
           STREAMFLOW =                               STREAMFLOW =                  
     GW BOUNDARY FLOW =            138.65       GW BOUNDARY FLOW =              1.43


                                    OUT                                        OUT
                                    ---                                        ---
   EVAPOTRANSPIRATION =        6162118.76     EVAPOTRANSPIRATION =         127630.39
           STREAMFLOW =        5965167.21             STREAMFLOW =          25814.37
     GW BOUNDARY FLOW =           8709.38       GW BOUNDARY FLOW =             33.88

   INFLOWS - OUTFLOWS =        2535118.10     INFLOWS - OUTFLOWS =        -153477.21
             --------                                   --------

 TOTAL STORAGE CHANGE =        2537967.92         STORAGE CHANGE =        -153473.44
       --------------                             --------------
         LAND SURFACE =          18305.18           LAND SURFACE =          -3906.15
            SOIL ZONE =        4746500.78              SOIL ZONE =        -145300.26
     UNSATURATED ZONE =       -2774056.76       UNSATURATED ZONE =          -3069.48
       SATURATED ZONE =         547218.73         SATURATED ZONE =          -1197.55

 OVERALL BUDGET ERROR =          -2849.82           BUDGET ERROR =             -3.76


  PERCENT DISCREPANCY =             -0.02    PERCENT DISCREPANCY =             -0.00



1
 SUMMARY VOLUMETRIC BUDGET FOR GSFLOW 
 DATE: 06 09 1991              CUMULATIVE TIME STEP:       9
 MODFLOW STRESS PERIOD     10     CURRENT TIME STEP:     252     ITERATIONS:       7

 -----------------------------------------------------------------------------------

   CUMULATIVE VOLUMES               L**3   RATES FOR THIS TIME STEP           L**3/T
   ------------------                      ------------------------

                                     IN                                         IN
                                     --                                         --
        PRECIPITATION =        1.4671D+07          PRECIPITATION =                  
           STREAMFLOW =                               STREAMFLOW =                  
     GW BOUNDARY FLOW =            148.84       GW BOUNDARY FLOW =              1.47


                                    OUT                                        OUT
                                    ---                                        ---
   EVAPOTRANSPIRATION =        6951017.23     EVAPOTRANSPIRATION =         172555.02
           STREAMFLOW =        6116712.29             STREAMFLOW =          18807.58
     GW BOUNDARY FLOW =           8945.35       GW BOUNDARY FLOW =             33.59

   INFLOWS - OUTFLOWS =        1594448.77     INFLOWS - OUTFLOWS =        -191394.71
             --------                                   --------

 TOTAL STORAGE CHANGE =        1597339.81         STORAGE CHANGE =        -191388.44
       --------------                             --------------
         LAND SURFACE =           3417.33           LAND SURFACE =          -2018.63
            SOIL ZONE =        3869654.92              SOIL ZONE =        -180595.82
     UNSATURATED ZONE =       -2810329.14       UNSATURATED ZONE =          -6405.97
       SATURATED ZONE =         534596.70         SATURATED ZONE =          -2368.02

 OVERALL BUDGET ERROR =          -2891.03           BUDGET ERROR =             -6.28


  PERCENT DISCREPANCY =             -0.02    PERCENT DISCREPANCY =             -0.00



1
 SUMMARY VOLUMETRIC BUDGET FOR GSFLOW 
 DATE: 06 16 1991              CUMULATIVE TIME STEP:      16
 MODFLOW STRESS PERIOD     10     CURRENT TIME STEP:     259     ITERATIONS:       6

 -----------------------------------------------------------------------------------

   CUMULATIVE VOLUMES               L**3   RATES FOR THIS TIME STEP           L**3/T
   ------------------                      ------------------------

                                     IN                                         IN
                                     --                                         --
        PRECIPITATION =        1.4671D+07          PRECIPITATION =                  
           STREAMFLOW =                               STREAMFLOW =                  
     GW BOUNDARY FLOW =            159.32       GW BOUNDARY FLOW =              1.51


                                    OUT                                        OUT
                                    ---                                        ---
   EVAPOTRANSPIRATION =        7968094.79     EVAPOTRANSPIRATION =         117053.71
           STREAMFLOW =        6235206.19             STREAMFLOW =          16361.09
     GW BOUNDARY FLOW =           9179.57       GW BOUNDARY FLOW =             33.38

   INFLOWS - OUTFLOWS =         458653.56     INFLOWS - OUTFLOWS =        -133446.68
             --------                                   --------

 TOTAL STORAGE CHANGE =         461609.35         STORAGE CHANGE =        -133435.65
       --------------                             --------------
         LAND SURFACE =             89.42           LAND SURFACE =            -43.13
            SOIL ZONE =        2844290.84              SOIL ZONE =        -113384.15
     UNSATURATED ZONE =       -2895837.36       UNSATURATED ZONE =         -16136.99
       SATURATED ZONE =         513066.45         SATURATED ZONE =          -3871.38

 OVERALL BUDGET ERROR =          -2955.79           BUDGET ERROR =            -11.03


  PERCENT DISCREPANCY =             -0.02    PERCENT DISCREPANCY =             -0.01



1
 SUMMARY VOLUMETRIC BUDGET FOR GSFLOW 
 DATE: 06 23 1991              CUMULATIVE TIME STEP:      23
 MODFLOW STRESS PERIOD     10     CURRENT TIME STEP:     266     ITERATIONS:       5

 -----------------------------------------------------------------------------------

   CUMULATIVE VOLUMES               L**3   RATES FOR THIS TIME STEP           L**3/T
   ------------------                      ------------------------

                                     IN                                         IN
                                     --                                         --
        PRECIPITATION =        1.4671D+07          PRECIPITATION =                  
           STREAMFLOW =                               STREAMFLOW =                  
     GW BOUNDARY FLOW =            169.89       GW BOUNDARY FLOW =              1.48


                                    OUT                                        OUT
                                    ---                                        ---
   EVAPOTRANSPIRATION =        8511719.92     EVAPOTRANSPIRATION =          39005.25
           STREAMFLOW =        6346085.11             STREAMFLOW =          15544.09
     GW BOUNDARY FLOW =           9412.60       GW BOUNDARY FLOW =             33.22

   INFLOWS - OUTFLOWS =        -196072.94     INFLOWS - OUTFLOWS =         -54581.08
             --------                                   --------

 TOTAL STORAGE CHANGE =        -193025.56         STORAGE CHANGE =         -54559.66
       --------------                             --------------
         LAND SURFACE =             10.53           LAND SURFACE =             -3.38
            SOIL ZONE =        2336936.17              SOIL ZONE =         -35978.08
     UNSATURATED ZONE =       -3008370.39       UNSATURATED ZONE =         -13161.64
       SATURATED ZONE =         478398.13         SATURATED ZONE =          -5416.56

 OVERALL BUDGET ERROR =          -3047.38           BUDGET ERROR =            -21.42


  PERCENT DISCREPANCY =             -0.02    PERCENT DISCREPANCY =             -0.04



1
 SUMMARY VOLUMETRIC BUDGET FOR GSFLOW 
 DATE: 06 30 1991              CUMULATIVE TIME STEP:      30
 MODFLOW STRESS PERIOD     10     CURRENT TIME STEP:     273     ITERATIONS:       5

 -----------------------------------------------------------------------------------

   CUMULATIVE VOLUMES               L**3   RATES FOR THIS TIME STEP           L**3/T
   ------------------                      ------------------------

                                     IN                                         IN
[...]
   ------------------                      ------------------------

                                     IN                                         IN
                                     --                                         --
        PRECIPITATION =        2.4013D+08          PRECIPITATION =                  
           STREAMFLOW =                               STREAMFLOW =                  
     GW BOUNDARY FLOW =          14854.16       GW BOUNDARY FLOW =              6.14


                                    OUT                                        OUT
                                    ---                                        ---
   EVAPOTRANSPIRATION =        1.4352D+08     EVAPOTRANSPIRATION =          27627.04
           STREAMFLOW =        1.2074D+08             STREAMFLOW =           6417.06
     GW BOUNDARY FLOW =          95675.19       GW BOUNDARY FLOW =             22.28

   INFLOWS - OUTFLOWS =       -2.4212D+07     INFLOWS - OUTFLOWS =         -34060.24
             --------                                   --------

 TOTAL STORAGE CHANGE =       -2.4197D+07         STORAGE CHANGE =         -34060.78
       --------------                             --------------
         LAND SURFACE =          31152.71           LAND SURFACE =         -27523.93
            SOIL ZONE =        -202529.46              SOIL ZONE =            -60.48
     UNSATURATED ZONE =         424890.09       UNSATURATED ZONE =          -1600.91
       SATURATED ZONE =       -2.4450D+07         SATURATED ZONE =          -4875.45

 OVERALL BUDGET ERROR =         -15319.53           BUDGET ERROR =              0.54


  PERCENT DISCREPANCY =             -0.01    PERCENT DISCREPANCY =              0.00



1
 SUMMARY VOLUMETRIC BUDGET FOR GSFLOW 
 DATE: 09 10 2000              CUMULATIVE TIME STEP:      10
 MODFLOW STRESS PERIOD    121     CURRENT TIME STEP:    3633     ITERATIONS:      13

 -----------------------------------------------------------------------------------

   CUMULATIVE VOLUMES               L**3   RATES FOR THIS TIME STEP           L**3/T
   ------------------                      ------------------------

                                     IN                                         IN
                                     --                                         --
        PRECIPITATION =        2.4013D+08          PRECIPITATION =                  
           STREAMFLOW =                               STREAMFLOW =                  
     GW BOUNDARY FLOW =          14897.14       GW BOUNDARY FLOW =              6.14


                                    OUT                                        OUT
                                    ---                                        ---
   EVAPOTRANSPIRATION =        1.4361D+08     EVAPOTRANSPIRATION =           8570.20
           STREAMFLOW =        1.2077D+08             STREAMFLOW =           4315.36
     GW BOUNDARY FLOW =          95829.74       GW BOUNDARY FLOW =             22.05

   INFLOWS - OUTFLOWS =       -2.4331D+07     INFLOWS - OUTFLOWS =         -12901.47
             --------                                   --------

 TOTAL STORAGE CHANGE =       -2.4316D+07         STORAGE CHANGE =         -12900.77
       --------------                             --------------
         LAND SURFACE =                             LAND SURFACE =                  
            SOIL ZONE =        -218761.03              SOIL ZONE =          -2399.55
     UNSATURATED ZONE =         413344.35       UNSATURATED ZONE =          -1616.35
       SATURATED ZONE =       -2.4511D+07         SATURATED ZONE =          -8884.87

 OVERALL BUDGET ERROR =         -15329.35           BUDGET ERROR =             -0.70


  PERCENT DISCREPANCY =             -0.01    PERCENT DISCREPANCY =             -0.01



1
 SUMMARY VOLUMETRIC BUDGET FOR GSFLOW 
 DATE: 09 17 2000              CUMULATIVE TIME STEP:      17
 MODFLOW STRESS PERIOD    121     CURRENT TIME STEP:    3640     ITERATIONS:       7

 -----------------------------------------------------------------------------------

   CUMULATIVE VOLUMES               L**3   RATES FOR THIS TIME STEP           L**3/T
   ------------------                      ------------------------

                                     IN                                         IN
                                     --                                         --
        PRECIPITATION =        2.4013D+08          PRECIPITATION =                  
           STREAMFLOW =                               STREAMFLOW =                  
     GW BOUNDARY FLOW =          14940.18       GW BOUNDARY FLOW =              6.15


                                    OUT                                        OUT
                                    ---                                        ---
   EVAPOTRANSPIRATION =        1.4368D+08     EVAPOTRANSPIRATION =           9859.43
           STREAMFLOW =        1.2080D+08             STREAMFLOW =           4037.75
     GW BOUNDARY FLOW =          95983.65       GW BOUNDARY FLOW =             22.00

   INFLOWS - OUTFLOWS =       -2.4432D+07     INFLOWS - OUTFLOWS =         -13913.03
             --------                                   --------

 TOTAL STORAGE CHANGE =       -2.4417D+07         STORAGE CHANGE =         -13911.66
       --------------                             --------------
         LAND SURFACE =                             LAND SURFACE =                  
            SOIL ZONE =        -237890.17              SOIL ZONE =          -2392.18
     UNSATURATED ZONE =         401897.21       UNSATURATED ZONE =          -1630.81
       SATURATED ZONE =       -2.4581D+07         SATURATED ZONE =          -9888.66

 OVERALL BUDGET ERROR =         -15331.87           BUDGET ERROR =             -1.37


  PERCENT DISCREPANCY =             -0.01    PERCENT DISCREPANCY =             -0.01



1
 SUMMARY VOLUMETRIC BUDGET FOR GSFLOW 
 DATE: 09 24 2000              CUMULATIVE TIME STEP:      24
 MODFLOW STRESS PERIOD    121     CURRENT TIME STEP:    3647     ITERATIONS:       6

 -----------------------------------------------------------------------------------

   CUMULATIVE VOLUMES               L**3   RATES FOR THIS TIME STEP           L**3/T
   ------------------                      ------------------------

                                     IN                                         IN
                                     --                                         --
        PRECIPITATION =        2.4013D+08          PRECIPITATION =                  
           STREAMFLOW =                               STREAMFLOW =                  
     GW BOUNDARY FLOW =          14983.26       GW BOUNDARY FLOW =              6.16


                                    OUT                                        OUT
                                    ---                                        ---
   EVAPOTRANSPIRATION =        1.4374D+08     EVAPOTRANSPIRATION =           5096.01
           STREAMFLOW =        1.2083D+08             STREAMFLOW =           5196.15
     GW BOUNDARY FLOW =          96137.95       GW BOUNDARY FLOW =             22.13

   INFLOWS - OUTFLOWS =       -2.4518D+07     INFLOWS - OUTFLOWS =         -10308.13
             --------                                   --------

 TOTAL STORAGE CHANGE =       -2.4503D+07         STORAGE CHANGE =         -10307.16
       --------------                             --------------
         LAND SURFACE =                             LAND SURFACE =                  
            SOIL ZONE =        -250097.17              SOIL ZONE =          -1055.98
     UNSATURATED ZONE =         390849.14       UNSATURATED ZONE =          -1520.70
       SATURATED ZONE =       -2.4644D+07         SATURATED ZONE =          -7730.48

 OVERALL BUDGET ERROR =         -15338.29           BUDGET ERROR =             -0.97


  PERCENT DISCREPANCY =             -0.01    PERCENT DISCREPANCY =             -0.01



1
 SUMMARY VOLUMETRIC BUDGET FOR GSFLOW 
 DATE: 10 01 2000              CUMULATIVE TIME STEP:       1
 MODFLOW STRESS PERIOD    122     CURRENT TIME STEP:    3654     ITERATIONS:       7

 -----------------------------------------------------------------------------------

   CUMULATIVE VOLUMES               L**3   RATES FOR THIS TIME STEP           L**3/T
   ------------------                      ------------------------

                                     IN                                         IN
                                     --                                         --
        PRECIPITATION =        2.4013D+08          PRECIPITATION =                  
           STREAMFLOW =                               STREAMFLOW =                  
     GW BOUNDARY FLOW =          15026.40       GW BOUNDARY FLOW =              6.16


                                    OUT                                        OUT
                                    ---                                        ---
   EVAPOTRANSPIRATION =        1.4380D+08     EVAPOTRANSPIRATION =           8243.45
           STREAMFLOW =        1.2086D+08             STREAMFLOW =           4353.18
     GW BOUNDARY FLOW =          96292.16       GW BOUNDARY FLOW =             22.03

   INFLOWS - OUTFLOWS =       -2.4608D+07     INFLOWS - OUTFLOWS =         -12612.50
             --------                                   --------

 TOTAL STORAGE CHANGE =       -2.4593D+07         STORAGE CHANGE =         -12612.80
       --------------                             --------------
         LAND SURFACE =                             LAND SURFACE =                  
            SOIL ZONE =        -261853.89              SOIL ZONE =          -1552.04
     UNSATURATED ZONE =         379890.20       UNSATURATED ZONE =          -1569.32
       SATURATED ZONE =       -2.4711D+07         SATURATED ZONE =          -9491.45

 OVERALL BUDGET ERROR =         -15341.63           BUDGET ERROR =              0.30


  PERCENT DISCREPANCY =             -0.01    PERCENT DISCREPANCY =              0.00



1
 SUMMARY VOLUMETRIC BUDGET FOR GSFLOW 
 DATE: 10 08 2000              CUMULATIVE TIME STEP:       8
 MODFLOW STRESS PERIOD    122     CURRENT TIME STEP:    3661     ITERATIONS:       3

 -----------------------------------------------------------------------------------

   CUMULATIVE VOLUMES               L**3   RATES FOR THIS TIME STEP           L**3/T
   ------------------                      ------------------------

                                     IN                                         IN
                                     --                                         --
        PRECIPITATION =        2.4013D+08          PRECIPITATION =                  
           STREAMFLOW =                               STREAMFLOW =                  
     GW BOUNDARY FLOW =          15069.57       GW BOUNDARY FLOW =              6.17


                                    OUT                                        OUT
                                    ---                                        ---
   EVAPOTRANSPIRATION =        1.4385D+08     EVAPOTRANSPIRATION =           6903.44
           STREAMFLOW =        1.2089D+08             STREAMFLOW =           4759.84
     GW BOUNDARY FLOW =          96446.58       GW BOUNDARY FLOW =             22.07

   INFLOWS - OUTFLOWS =       -2.4691D+07     INFLOWS - OUTFLOWS =         -11679.18
             --------                                   --------

 TOTAL STORAGE CHANGE =       -2.4676D+07         STORAGE CHANGE =         -11615.49
       --------------                             --------------
         LAND SURFACE =                             LAND SURFACE =                  
            SOIL ZONE =        -270659.61              SOIL ZONE =          -1147.91
     UNSATURATED ZONE =         369101.62       UNSATURATED ZONE =          -1549.77
       SATURATED ZONE =       -2.4774D+07         SATURATED ZONE =          -8917.81

 OVERALL BUDGET ERROR =         -15406.76           BUDGET ERROR =            -63.69


  PERCENT DISCREPANCY =             -0.01    PERCENT DISCREPANCY =             -0.55



1
 SUMMARY VOLUMETRIC BUDGET FOR GSFLOW 
 DATE: 10 15 2000              CUMULATIVE TIME STEP:      15
 MODFLOW STRESS PERIOD    122     CURRENT TIME STEP:    3668     ITERATIONS:       7

 -----------------------------------------------------------------------------------

   CUMULATIVE VOLUMES               L**3   RATES FOR THIS TIME STEP           L**3/T
   ------------------                      ------------------------

                                     IN                                         IN
                                     --                                         --
        PRECIPITATION =        2.4034D+08          PRECIPITATION =                  
           STREAMFLOW =                               STREAMFLOW =                  
     GW BOUNDARY FLOW =          15112.79       GW BOUNDARY FLOW =              6.18


                                    OUT                                        OUT
                                    ---                                        ---
   EVAPOTRANSPIRATION =        1.4392D+08     EVAPOTRANSPIRATION =           8029.09
           STREAMFLOW =        1.2094D+08             STREAMFLOW =           6067.31
     GW BOUNDARY FLOW =          96602.46       GW BOUNDARY FLOW =             22.23

   INFLOWS - OUTFLOWS =       -2.4601D+07     INFLOWS - OUTFLOWS =         -14112.45
             --------                                   --------

 TOTAL STORAGE CHANGE =       -2.4586D+07         STORAGE CHANGE =         -14111.89
       --------------                             --------------
         LAND SURFACE =            289.77           LAND SURFACE =          -3209.51
            SOIL ZONE =        -128017.43              SOIL ZONE =          -2040.62
     UNSATURATED ZONE =         358360.21       UNSATURATED ZONE =          -1631.05
       SATURATED ZONE =       -2.4816D+07         SATURATED ZONE =          -7230.71

 OVERALL BUDGET ERROR =         -15433.71           BUDGET ERROR =             -0.56


  PERCENT DISCREPANCY =             -0.01    PERCENT DISCREPANCY =             -0.00



1
 SUMMARY VOLUMETRIC BUDGET FOR GSFLOW 
 DATE: 10 22 2000              CUMULATIVE TIME STEP:      22
 MODFLOW STRESS PERIOD    122     CURRENT TIME STEP:    3675     ITERATIONS:       5

 -----------------------------------------------------------------------------------

   CUMULATIVE VOLUMES               L**3   RATES FOR THIS TIME STEP           L**3/T
   ------------------                      ------------------------

                                     IN                                         IN
                                     --                                         --
        PRECIPITATION =        2.4039D+08          PRECIPITATION =                  
           STREAMFLOW =                               STREAMFLOW =                  
     GW BOUNDARY FLOW =          15156.04       GW BOUNDARY FLOW =              6.18


                                    OUT                                        OUT
                                    ---                                        ---
   EVAPOTRANSPIRATION =        1.4397D+08     EVAPOTRANSPIRATION =           8033.28
           STREAMFLOW =        1.2098D+08             STREAMFLOW =           7104.16
     GW BOUNDARY FLOW =          96758.23       GW BOUNDARY FLOW =             22.36

   INFLOWS - OUTFLOWS =       -2.4642D+07     INFLOWS - OUTFLOWS =         -15153.62
             --------                                   --------

 TOTAL STORAGE CHANGE =       -2.4627D+07         STORAGE CHANGE =         -15149.05
       --------------                             --------------
         LAND SURFACE =          27624.54           LAND SURFACE =          -7992.89
            SOIL ZONE =        -135993.14              SOIL ZONE =              8.66
     UNSATURATED ZONE =         347341.56       UNSATURATED ZONE =          -1484.39
       SATURATED ZONE =       -2.4866D+07         SATURATED ZONE =          -5680.43

 OVERALL BUDGET ERROR =         -15461.24           BUDGET ERROR =             -4.57


  PERCENT DISCREPANCY =             -0.01    PERCENT DISCREPANCY =             -0.03



1
 SUMMARY VOLUMETRIC BUDGET FOR GSFLOW 
 DATE: 10 29 2000              CUMULATIVE TIME STEP:      29
 MODFLOW STRESS PERIOD    122     CURRENT TIME STEP:    3682     ITERATIONS:      23

 -----------------------------------------------------------------------------------

   CUMULATIVE VOLUMES               L**3   RATES FOR THIS TIME STEP           L**3/T
   ------------------                      ------------------------

                                     IN                                         IN
                                     --                                         --
        PRECIPITATION =        2.4111D+08          PRECIPITATION =          24578.20
           STREAMFLOW =                               STREAMFLOW =                  
     GW BOUNDARY FLOW =          15199.32       GW BOUNDARY FLOW =              6.18


                                    OUT                                        OUT
                                    ---                                        ---
   EVAPOTRANSPIRATION =        1.4401D+08     EVAPOTRANSPIRATION =           1112.72
           STREAMFLOW =        1.2103D+08             STREAMFLOW =           7014.95
     GW BOUNDARY FLOW =          96914.66       GW BOUNDARY FLOW =             22.38

   INFLOWS - OUTFLOWS =       -2.4004D+07     INFLOWS - OUTFLOWS =          16434.34
             --------                                   --------

 TOTAL STORAGE CHANGE =       -2.3989D+07         STORAGE CHANGE =          16434.27
       --------------                             --------------
         LAND SURFACE =         587219.83           LAND SURFACE =          11658.99
            SOIL ZONE =          -3418.20              SOIL ZONE =          12327.52
     UNSATURATED ZONE =         336437.13       UNSATURATED ZONE =          -1570.74
       SATURATED ZONE =       -2.4909D+07         SATURATED ZONE =          -5981.50

 OVERALL BUDGET ERROR =         -15479.52           BUDGET ERROR =              0.07


  PERCENT DISCREPANCY =             -0.01    PERCENT DISCREPANCY =              0.00



 Number of time steps:   3684;  Number of non-convergence:   0
 MF iterations:         24324;  SZ iterations:           23204
 Average MF iterations:  6.60;  Average SZ iterations:    6.30
 Maximum MF iterations:   507;  Maximum SZ iterations:      50

mxsziter reached: 10

MF iteration distribution:      0    0   93  401  638 1197  885  280  111   26
                                8    1   10    3    4    2    1    3    0    0
                                0    1    4    1    0    0    0    0    1    0
                                1    0    0    0    0    0    1    0    1    0
                                0    0    0    0    0    1    0    0    0    0
                                0    1    0    0    0    0    0    0    0    0
                                0    0    0    0    0    0    0    0    0    1
                                0    0    0    0    0    0    0    1    0    7

SZ computation distribution:    0    0   93  401  638 1197  885  280  111   26
                                8    1   10    3    4    2    1    3    0    0
                                0    1    4    1    0    0    0    0    1    0
                                1    0    0    0    0    0    1    0    1    0
                                0    0    0    0    0    1    0    0    0   10
                                0    0    0    0    0    0    0    0    0    0
                                0    0    0    0    0    0    0    0    0    0
                                0    0    0    0    0    0    0    0    0    0

