1
 SUMMARY VOLUMETRIC BUDGET FOR GSFLOW 
 DATE: 10 07 1990              CUMULATIVE TIME STEP:       7
 MODFLOW STRESS PERIOD      2     CURRENT TIME STEP:       7     ITERATIONS:       7

 -----------------------------------------------------------------------------------

   CUMULATIVE VOLUMES               L**3   RATES FOR THIS TIME STEP           L**3/T
   ------------------                      ------------------------

                                     IN                                         IN
                                     --                                         --
        PRECIPITATION =                            PRECIPITATION =                  
           STREAMFLOW =                               STREAMFLOW =                  
     GW BOUNDARY FLOW =                         GW BOUNDARY FLOW =                  


                                    OUT                                        OUT
                                    ---                                        ---
   EVAPOTRANSPIRATION =         384997.90     EVAPOTRANSPIRATION =          11800.14
           STREAMFLOW =          46311.09             STREAMFLOW =           8184.28
     GW BOUNDARY FLOW =            252.80       GW BOUNDARY FLOW =             36.30

   INFLOWS - OUTFLOWS =        -431561.78     INFLOWS - OUTFLOWS =         -20020.73
             --------                                   --------

 TOTAL STORAGE CHANGE =        -430092.43         STORAGE CHANGE =         -19994.04
       --------------                             --------------
         LAND SURFACE =                             LAND SURFACE =                  
            SOIL ZONE =         -33647.94              SOIL ZONE =           -949.06
     UNSATURATED ZONE =        -502271.26       UNSATURATED ZONE =         -33315.93
       SATURATED ZONE =         105826.77         SATURATED ZONE =          14270.95

 OVERALL BUDGET ERROR =          -1469.35           BUDGET ERROR =            -26.68


  PERCENT DISCREPANCY =             -0.34    PERCENT DISCREPANCY =             -0.13



1
 SUMMARY VOLUMETRIC BUDGET FOR GSFLOW 
 DATE: 10 14 1990              CUMULATIVE TIME STEP:      14
 MODFLOW STRESS PERIOD      2     CURRENT TIME STEP:      14     ITERATIONS:       6

 -----------------------------------------------------------------------------------

   CUMULATIVE VOLUMES               L**3   RATES FOR THIS TIME STEP           L**3/T
   ------------------                      ------------------------

                                     IN                                         IN
                                     --                                         --
        PRECIPITATION =                            PRECIPITATION =                  
           STREAMFLOW =                               STREAMFLOW =                  
     GW BOUNDARY FLOW =                         GW BOUNDARY FLOW =                  


                                    OUT                                        OUT
                                    ---                                        ---
   EVAPOTRANSPIRATION =         665193.76     EVAPOTRANSPIRATION =          42313.10
           STREAMFLOW =         101471.34             STREAMFLOW =           7477.71
     GW BOUNDARY FLOW =            506.65       GW BOUNDARY FLOW =             36.24

   INFLOWS - OUTFLOWS =        -767171.75     INFLOWS - OUTFLOWS =         -49827.05
             --------                                   --------

 TOTAL STORAGE CHANGE =        -765417.42         STORAGE CHANGE =         -49806.36
       --------------                             --------------
         LAND SURFACE =                             LAND SURFACE =                  
            SOIL ZONE =         -58651.68              SOIL ZONE =          -4416.62
     UNSATURATED ZONE =        -877077.56       UNSATURATED ZONE =         -52127.47
       SATURATED ZONE =         170311.81         SATURATED ZONE =           6737.73

 OVERALL BUDGET ERROR =          -1754.33           BUDGET ERROR =            -20.69


  PERCENT DISCREPANCY =             -0.23    PERCENT DISCREPANCY =             -0.04



1
 SUMMARY VOLUMETRIC BUDGET FOR GSFLOW 
 DATE: 10 21 1990              CUMULATIVE TIME STEP:      21
 MODFLOW STRESS PERIOD      2     CURRENT TIME STEP:      21     ITERATIONS:       6

 -----------------------------------------------------------------------------------

   CUMULATIVE VOLUMES               L**3   RATES FOR THIS TIME STEP           L**3/T
   ------------------                      ------------------------

                                     IN                                         IN
                                     --                                         --
        PRECIPITATION =         188432.87          PRECIPITATION =                  
           STREAMFLOW =                               STREAMFLOW =                  
     GW BOUNDARY FLOW =                         GW BOUNDARY FLOW =                  


                                    OUT                                        OUT
                                    ---                                        ---
   EVAPOTRANSPIRATION =         815444.65     EVAPOTRANSPIRATION =          41709.13
           STREAMFLOW =         164527.69             STREAMFLOW =          10159.31
     GW BOUNDARY FLOW =            760.84       GW BOUNDARY FLOW =             36.37

   INFLOWS - OUTFLOWS =        -792300.32     INFLOWS - OUTFLOWS =         -51904.82
             --------                                   --------

 TOTAL STORAGE CHANGE =        -790494.11         STORAGE CHANGE =         -51909.53
       --------------                             --------------
         LAND SURFACE =          18885.57           LAND SURFACE =         -43558.49
            SOIL ZONE =          48188.83              SOIL ZONE =           2053.01
     UNSATURATED ZONE =       -1090962.03       UNSATURATED ZONE =         -21361.65
       SATURATED ZONE =         233393.51         SATURATED ZONE =          10957.60

 OVERALL BUDGET ERROR =          -1806.21           BUDGET ERROR =              4.71


  PERCENT DISCREPANCY =             -0.18    PERCENT DISCREPANCY =              0.01



1
 SUMMARY VOLUMETRIC BUDGET FOR GSFLOW 
 DATE: 10 28 1990              CUMULATIVE TIME STEP:      28
 MODFLOW STRESS PERIOD      2     CURRENT TIME STEP:      28     ITERATIONS:       6

 -----------------------------------------------------------------------------------

   CUMULATIVE VOLUMES               L**3   RATES FOR THIS TIME STEP           L**3/T
   ------------------                      ------------------------

                                     IN                                         IN
                                     --                                         --
        PRECIPITATION =         188432.87          PRECIPITATION =                  
           STREAMFLOW =                               STREAMFLOW =                  
     GW BOUNDARY FLOW =                         GW BOUNDARY FLOW =                  


                                    OUT                                        OUT
                                    ---                                        ---
   EVAPOTRANSPIRATION =         943786.25     EVAPOTRANSPIRATION =          11825.75
           STREAMFLOW =         226198.14             STREAMFLOW =           8957.64
     GW BOUNDARY FLOW =           1014.04       GW BOUNDARY FLOW =             36.13

   INFLOWS - OUTFLOWS =        -982565.56     INFLOWS - OUTFLOWS =         -20819.51
             --------                                   --------

 TOTAL STORAGE CHANGE =        -980747.63         STORAGE CHANGE =         -20821.49
       --------------                             --------------
         LAND SURFACE =                             LAND SURFACE =                  
            SOIL ZONE =          19150.20              SOIL ZONE =          -3436.32
     UNSATURATED ZONE =       -1274636.50       UNSATURATED ZONE =         -23283.91
       SATURATED ZONE =         274738.67         SATURATED ZONE =           5898.74

 OVERALL BUDGET ERROR =          -1817.94           BUDGET ERROR =              1.98


  PERCENT DISCREPANCY =             -0.16    PERCENT DISCREPANCY =              0.01



1
 SUMMARY VOLUMETRIC BUDGET FOR GSFLOW 
 DATE: 11 04 1990              CUMULATIVE TIME STEP:       4
 MODFLOW STRESS PERIOD      3     CURRENT TIME STEP:      35     ITERATIONS:       6

 -----------------------------------------------------------------------------------

   CUMULATIVE VOLUMES               L**3   RATES FOR THIS TIME STEP           L**3/T
   ------------------                      ------------------------

                                     IN                                         IN
                                     --                                         --
        PRECIPITATION =         703113.06          PRECIPITATION =                  
           STREAMFLOW =                               STREAMFLOW =                  
     GW BOUNDARY FLOW =                         GW BOUNDARY FLOW =                  


                                    OUT                                        OUT
                                    ---                                        ---
   EVAPOTRANSPIRATION =        1004361.12     EVAPOTRANSPIRATION =          26280.47
           STREAMFLOW =         296575.43             STREAMFLOW =          10532.23
     GW BOUNDARY FLOW =           1267.08       GW BOUNDARY FLOW =             36.14

   INFLOWS - OUTFLOWS =        -599090.57     INFLOWS - OUTFLOWS =         -36848.83
             --------                                   --------

 TOTAL STORAGE CHANGE =        -597294.10         STORAGE CHANGE =         -36853.51
       --------------                             --------------
         LAND SURFACE =         132159.65           LAND SURFACE =        -160480.33
            SOIL ZONE =         356557.55              SOIL ZONE =         134353.68
     UNSATURATED ZONE =       -1420410.75       UNSATURATED ZONE =         -20102.65
       SATURATED ZONE =         334399.46         SATURATED ZONE =           9375.79

 OVERALL BUDGET ERROR =          -1796.47           BUDGET ERROR =              4.68


  PERCENT DISCREPANCY =             -0.14    PERCENT DISCREPANCY =              0.01



1
 SUMMARY VOLUMETRIC BUDGET FOR GSFLOW 
 DATE: 11 11 1990              CUMULATIVE TIME STEP:      11
 MODFLOW STRESS PERIOD      3     CURRENT TIME STEP:      42     ITERATIONS:       6

 -----------------------------------------------------------------------------------

   CUMULATIVE VOLUMES               L**3   RATES FOR THIS TIME STEP           L**3/T
   ------------------                      ------------------------

                                     IN                                         IN
                                     --                                         --
        PRECIPITATION =         703113.06          PRECIPITATION =                  
           STREAMFLOW =                               STREAMFLOW =                  
     GW BOUNDARY FLOW =                         GW BOUNDARY FLOW =                  


                                    OUT                                        OUT
                                    ---                                        ---
   EVAPOTRANSPIRATION =        1081513.59     EVAPOTRANSPIRATION =          12128.89
           STREAMFLOW =         367261.09             STREAMFLOW =           9620.94
     GW BOUNDARY FLOW =           1519.17       GW BOUNDARY FLOW =             35.92

   INFLOWS - OUTFLOWS =        -747180.79     INFLOWS - OUTFLOWS =         -21785.75
             --------                                   --------

 TOTAL STORAGE CHANGE =        -745405.26         STORAGE CHANGE =         -21788.47
       --------------                             --------------
         LAND SURFACE =            595.09           LAND SURFACE =          -1416.54
            SOIL ZONE =         429673.83              SOIL ZONE =          -5363.78
     UNSATURATED ZONE =       -1559864.97       UNSATURATED ZONE =         -19893.60
       SATURATED ZONE =         384190.78         SATURATED ZONE =           4885.45

 OVERALL BUDGET ERROR =          -1775.53           BUDGET ERROR =              2.72


  PERCENT DISCREPANCY =             -0.12    PERCENT DISCREPANCY =              0.01



1
 SUMMARY VOLUMETRIC BUDGET FOR GSFLOW 
 DATE: 11 18 1990              CUMULATIVE TIME STEP:      18
 MODFLOW STRESS PERIOD      3     CURRENT TIME STEP:      49     ITERATIONS:       6

 -----------------------------------------------------------------------------------

   CUMULATIVE VOLUMES               L**3   RATES FOR THIS TIME STEP           L**3/T
   ------------------                      ------------------------

                                     IN                                         IN
                                     --                                         --
        PRECIPITATION =         747883.35          PRECIPITATION =                  
           STREAMFLOW =                               STREAMFLOW =                  
     GW BOUNDARY FLOW =                         GW BOUNDARY FLOW =                  


                                    OUT                                        OUT
                                    ---                                        ---
   EVAPOTRANSPIRATION =        1153917.32     EVAPOTRANSPIRATION =           5054.33
           STREAMFLOW =         438804.91             STREAMFLOW =          10650.77
     GW BOUNDARY FLOW =           1770.48       GW BOUNDARY FLOW =             35.88

   INFLOWS - OUTFLOWS =        -846609.36     INFLOWS - OUTFLOWS =         -15740.98
             --------                                   --------

 TOTAL STORAGE CHANGE =        -844849.55         STORAGE CHANGE =         -15744.18
       --------------                             --------------
         LAND SURFACE =           7868.08           LAND SURFACE =          -3691.47
            SOIL ZONE =         412223.16              SOIL ZONE =           -675.24
     UNSATURATED ZONE =       -1693343.72       UNSATURATED ZONE =         -18649.45
       SATURATED ZONE =         428402.92         SATURATED ZONE =           7271.98

 OVERALL BUDGET ERROR =          -1759.81           BUDGET ERROR =              3.20


  PERCENT DISCREPANCY =             -0.11    PERCENT DISCREPANCY =              0.02



1
 SUMMARY VOLUMETRIC BUDGET FOR GSFLOW 
 DATE: 11 25 1990              CUMULATIVE TIME STEP:      25
 MODFLOW STRESS PERIOD      3     CURRENT TIME STEP:      56     ITERATIONS:       6

 -----------------------------------------------------------------------------------

   CUMULATIVE VOLUMES               L**3   RATES FOR THIS TIME STEP           L**3/T
   ------------------                      ------------------------

                                     IN                                         IN
                                     --                                         --
        PRECIPITATION =        1009043.38          PRECIPITATION =         186542.88
           STREAMFLOW =                               STREAMFLOW =                  
     GW BOUNDARY FLOW =                         GW BOUNDARY FLOW =                  


                                    OUT                                        OUT
                                    ---                                        ---
   EVAPOTRANSPIRATION =        1214345.50     EVAPOTRANSPIRATION =           3757.62
           STREAMFLOW =         514549.42             STREAMFLOW =          10731.14
     GW BOUNDARY FLOW =           2021.42       GW BOUNDARY FLOW =             35.79

   INFLOWS - OUTFLOWS =        -721872.97     INFLOWS - OUTFLOWS =         172018.33
             --------                                   --------

 TOTAL STORAGE CHANGE =        -720132.01         STORAGE CHANGE =         172016.10
       --------------                             --------------
         LAND SURFACE =          86180.68           LAND SURFACE =          69567.13
            SOIL ZONE =         537023.56              SOIL ZONE =         114165.41
     UNSATURATED ZONE =       -1821308.59       UNSATURATED ZONE =         -17971.43
       SATURATED ZONE =         477972.34         SATURATED ZONE =           6254.99

 OVERALL BUDGET ERROR =          -1740.95           BUDGET ERROR =              2.23


  PERCENT DISCREPANCY =             -0.10    PERCENT DISCREPANCY =              0.00



1
 SUMMARY VOLUMETRIC BUDGET FOR GSFLOW 
 DATE: 12 02 1990              CUMULATIVE TIME STEP:       2
 MODFLOW STRESS PERIOD      4     CURRENT TIME STEP:      63     ITERATIONS:       6

 -----------------------------------------------------------------------------------

   CUMULATIVE VOLUMES               L**3   RATES FOR THIS TIME STEP           L**3/T
   ------------------                      ------------------------

                                     IN                                         IN
                                     --                                         --
        PRECIPITATION =        1449284.55          PRECIPITATION =                  
           STREAMFLOW =                               STREAMFLOW =                  
     GW BOUNDARY FLOW =                         GW BOUNDARY FLOW =                  


                                    OUT                                        OUT
                                    ---                                        ---
   EVAPOTRANSPIRATION =        1220841.17     EVAPOTRANSPIRATION =            234.69
           STREAMFLOW =         591476.11             STREAMFLOW =          11039.64
     GW BOUNDARY FLOW =           2271.90       GW BOUNDARY FLOW =             35.77

   INFLOWS - OUTFLOWS =        -365304.63     INFLOWS - OUTFLOWS =         -11310.09
             --------                                   --------

 TOTAL STORAGE CHANGE =        -363579.03         STORAGE CHANGE =         -11312.02
       --------------                             --------------
         LAND SURFACE =         486845.62           LAND SURFACE =           -339.04
            SOIL ZONE =         571003.69              SOIL ZONE =            234.55
     UNSATURATED ZONE =       -1944497.10       UNSATURATED ZONE =         -17302.07
       SATURATED ZONE =         523068.75         SATURATED ZONE =           6094.54

 OVERALL BUDGET ERROR =          -1725.60           BUDGET ERROR =              1.93


  PERCENT DISCREPANCY =             -0.10    PERCENT DISCREPANCY =              0.02



1
 SUMMARY VOLUMETRIC BUDGET FOR GSFLOW 
 DATE: 12 09 1990              CUMULATIVE TIME STEP:       9
 MODFLOW STRESS PERIOD      4     CURRENT TIME STEP:      70     ITERATIONS:       6

 -----------------------------------------------------------------------------------

   CUMULATIVE VOLUMES               L**3   RATES FOR THIS TIME STEP           L**3/T
   ------------------                      ------------------------

                                     IN                                         IN
                                     --                                         --
        PRECIPITATION =        1449284.55          PRECIPITATION =                  
           STREAMFLOW =                               STREAMFLOW =                  
     GW BOUNDARY FLOW =                         GW BOUNDARY FLOW =                  


                                    OUT                                        OUT
                                    ---                                        ---
   EVAPOTRANSPIRATION =        1296676.90     EVAPOTRANSPIRATION =          13848.49
           STREAMFLOW =         668389.65             STREAMFLOW =          10742.06
     GW BOUNDARY FLOW =           2521.84       GW BOUNDARY FLOW =             35.64

   INFLOWS - OUTFLOWS =        -518303.84     INFLOWS - OUTFLOWS =         -24626.19
             --------                                   --------

 TOTAL STORAGE CHANGE =        -516588.51         STORAGE CHANGE =         -24626.96
       --------------                             --------------
         LAND SURFACE =          67215.41           LAND SURFACE =         -45889.70
            SOIL ZONE =         919152.25              SOIL ZONE =          33794.72
     UNSATURATED ZONE =       -2062656.39       UNSATURATED ZONE =         -16521.87
       SATURATED ZONE =         559700.22         SATURATED ZONE =           3989.89

 OVERALL BUDGET ERROR =          -1715.32           BUDGET ERROR =              0.78


  PERCENT DISCREPANCY =             -0.09    PERCENT DISCREPANCY =              0.00



1
 SUMMARY VOLUMETRIC BUDGET FOR GSFLOW 
 DATE: 12 16 1990              CUMULATIVE TIME STEP:      16
 MODFLOW STRESS PERIOD      4     CURRENT TIME STEP:      77     ITERATIONS:       5

 -----------------------------------------------------------------------------------

   CUMULATIVE VOLUMES               L**3   RATES FOR THIS TIME STEP           L**3/T
   ------------------                      ------------------------

                                     IN                                         IN
                                     --                                         --
        PRECIPITATION =        1804962.84          PRECIPITATION =                  
           STREAMFLOW =                               STREAMFLOW =                  
     GW BOUNDARY FLOW =                         GW BOUNDARY FLOW =                  


                                    OUT                                        OUT
                                    ---                                        ---
   EVAPOTRANSPIRATION =        1324953.54     EVAPOTRANSPIRATION =                  
           STREAMFLOW =         746838.29             STREAMFLOW =          11395.04
     GW BOUNDARY FLOW =           2771.22       GW BOUNDARY FLOW =             35.61

   INFLOWS - OUTFLOWS =        -269600.20     INFLOWS - OUTFLOWS =         -11430.65
             --------                                   --------

 TOTAL STORAGE CHANGE =        -267894.21         STORAGE CHANGE =         -11431.61
       --------------                             --------------
         LAND SURFACE =         252566.26           LAND SURFACE =                  
            SOIL ZONE =        1065398.55              SOIL ZONE =            148.61
     UNSATURATED ZONE =       -2176272.16       UNSATURATED ZONE =         -15968.74
       SATURATED ZONE =         590413.14         SATURATED ZONE =           4388.52

 OVERALL BUDGET ERROR =          -1705.99           BUDGET ERROR =              0.96


  PERCENT DISCREPANCY =             -0.08    PERCENT DISCREPANCY =              0.01



1
 SUMMARY VOLUMETRIC BUDGET FOR GSFLOW 
 DATE: 12 23 1990              CUMULATIVE TIME STEP:      23
 MODFLOW STRESS PERIOD      4     CURRENT TIME STEP:      84     ITERATIONS:       6

 -----------------------------------------------------------------------------------

   CUMULATIVE VOLUMES               L**3   RATES FOR THIS TIME STEP           L**3/T
   ------------------                      ------------------------

                                     IN                                         IN
                                     --                                         --
        PRECIPITATION =        2276236.55          PRECIPITATION =                  
           STREAMFLOW =                               STREAMFLOW =                  
     GW BOUNDARY FLOW =              0.08       GW BOUNDARY FLOW =              0.04


                                    OUT                                        OUT
                                    ---                                        ---
   EVAPOTRANSPIRATION =        1326011.14     EVAPOTRANSPIRATION =                  
           STREAMFLOW =         827029.93             STREAMFLOW =          11495.41
     GW BOUNDARY FLOW =           3020.24       GW BOUNDARY FLOW =             35.57

   INFLOWS - OUTFLOWS =         120175.33     INFLOWS - OUTFLOWS =         -11530.93
             --------                                   --------

 TOTAL STORAGE CHANGE =         121880.30         STORAGE CHANGE =         -11530.78
       --------------                             --------------
         LAND SURFACE =         722784.34           LAND SURFACE =                  
            SOIL ZONE =        1066483.94              SOIL ZONE =            158.76
     UNSATURATED ZONE =       -2285707.23       UNSATURATED ZONE =         -15387.96
       SATURATED ZONE =         618319.25         SATURATED ZONE =           3698.42

 OVERALL BUDGET ERROR =          -1704.98           BUDGET ERROR =             -0.15


  PERCENT DISCREPANCY =             -0.07    PERCENT DISCREPANCY =             -0.00



1
 SUMMARY VOLUMETRIC BUDGET FOR GSFLOW 
 DATE: 12 30 1990              CUMULATIVE TIME STEP:      30
 MODFLOW STRESS PERIOD      4     CURRENT TIME STEP:      91     ITERATIONS:       5

 -----------------------------------------------------------------------------------

   CUMULATIVE VOLUMES               L**3   RATES FOR THIS TIME STEP           L**3/T
   ------------------                      ------------------------

                                     IN                                         IN
                                     --                                         --
        PRECIPITATION =        2276236.55          PRECIPITATION =                  
           STREAMFLOW =                               STREAMFLOW =                  
     GW BOUNDARY FLOW =              0.77       GW BOUNDARY FLOW =              0.14


                                    OUT                                        OUT
                                    ---                                        ---
   EVAPOTRANSPIRATION =        1326578.64     EVAPOTRANSPIRATION =                  
           STREAMFLOW =         907895.63             STREAMFLOW =          11595.05
     GW BOUNDARY FLOW =           3269.34       GW BOUNDARY FLOW =             35.60

   INFLOWS - OUTFLOWS =          38493.71     INFLOWS - OUTFLOWS =         -11630.50
             --------                                   --------

 TOTAL STORAGE CHANGE =          40206.48         STORAGE CHANGE =         -11628.41
       --------------                             --------------
         LAND SURFACE =         722216.94           LAND SURFACE =                  
            SOIL ZONE =        1067639.50              SOIL ZONE =            170.33
     UNSATURATED ZONE =       -2391231.45       UNSATURATED ZONE =         -14845.61
       SATURATED ZONE =         641581.49         SATURATED ZONE =           3046.87

 OVERALL BUDGET ERROR =          -1712.77           BUDGET ERROR =             -2.10


  PERCENT DISCREPANCY =             -0.08    PERCENT DISCREPANCY =             -0.02



1
 SUMMARY VOLUMETRIC BUDGET FOR GSFLOW 
 DATE: 01 06 1991              CUMULATIVE TIME STEP:       6
 MODFLOW STRESS PERIOD      5     CURRENT TIME STEP:      98     ITERATIONS:       5

 -----------------------------------------------------------------------------------

   CUMULATIVE VOLUMES               L**3   RATES FOR THIS TIME STEP           L**3/T
   ------------------                      ------------------------

                                     IN                                         IN
                                     --                                         --
        PRECIPITATION =        2276236.55          PRECIPITATION =                  
           STREAMFLOW =                               STREAMFLOW =                  
     GW BOUNDARY FLOW =              2.09       GW BOUNDARY FLOW =              0.22


                                    OUT                                        OUT
                                    ---                                        ---
   EVAPOTRANSPIRATION =        1354511.16     EVAPOTRANSPIRATION =           3327.36
           STREAMFLOW =         989406.33             STREAMFLOW =          11676.52
     GW BOUNDARY FLOW =           3519.21       GW BOUNDARY FLOW =             35.75

   INFLOWS - OUTFLOWS =         -71198.06     INFLOWS - OUTFLOWS =         -15039.40
             --------                                   --------

 TOTAL STORAGE CHANGE =         -69462.87         STORAGE CHANGE =         -15035.29
       --------------                             --------------
         LAND SURFACE =         585426.33           LAND SURFACE =          -8558.21
            SOIL ZONE =        1177766.24              SOIL ZONE =           5413.54
     UNSATURATED ZONE =       -2492822.05       UNSATURATED ZONE =         -14283.30
       SATURATED ZONE =         660166.61         SATURATED ZONE =           2392.68

 OVERALL BUDGET ERROR =          -1735.19           BUDGET ERROR =             -4.12


  PERCENT DISCREPANCY =             -0.07    PERCENT DISCREPANCY =             -0.03



1
 SUMMARY VOLUMETRIC BUDGET FOR GSFLOW 
 DATE: 01 13 1991              CUMULATIVE TIME STEP:      13
 MODFLOW STRESS PERIOD      5     CURRENT TIME STEP:     105     ITERATIONS:       6

 -----------------------------------------------------------------------------------

   CUMULATIVE VOLUMES               L**3   RATES FOR THIS TIME STEP           L**3/T
   ------------------                      ------------------------

                                     IN                                         IN
                                     --                                         --
        PRECIPITATION =        2596386.94          PRECIPITATION =          10327.43
           STREAMFLOW =                               STREAMFLOW =                  
     GW BOUNDARY FLOW =              4.02       GW BOUNDARY FLOW =              0.31


                                    OUT                                        OUT
                                    ---                                        ---
   EVAPOTRANSPIRATION =        1422666.77     EVAPOTRANSPIRATION =          18918.25
           STREAMFLOW =        1071106.69             STREAMFLOW =          11587.68
     GW BOUNDARY FLOW =           3769.42       GW BOUNDARY FLOW =             35.73

   INFLOWS - OUTFLOWS =          98848.08     INFLOWS - OUTFLOWS =         -20213.92
             --------                                   --------

 TOTAL STORAGE CHANGE =         100613.70         STORAGE CHANGE =         -20211.03
       --------------                             --------------
         LAND SURFACE =         517131.90           LAND SURFACE =        -134708.01
            SOIL ZONE =        1500703.71              SOIL ZONE =         127102.99
     UNSATURATED ZONE =       -2590372.35       UNSATURATED ZONE =         -13732.13
       SATURATED ZONE =         673150.44         SATURATED ZONE =           1126.12

 OVERALL BUDGET ERROR =          -1765.62           BUDGET ERROR =             -2.89


  PERCENT DISCREPANCY =             -0.07    PERCENT DISCREPANCY =             -0.01



1
 SUMMARY VOLUMETRIC BUDGET FOR GSFLOW 
 DATE: 01 20 1991              CUMULATIVE TIME STEP:      20
 MODFLOW STRESS PERIOD      5     CURRENT TIME STEP:     112     ITERATIONS:       5

 -----------------------------------------------------------------------------------

   CUMULATIVE VOLUMES               L**3   RATES FOR THIS TIME STEP           L**3/T
   ------------------                      ------------------------

                                     IN                                         IN
                                     --                                         --
        PRECIPITATION =        2596386.94          PRECIPITATION =                  
           STREAMFLOW =                               STREAMFLOW =                  
     GW BOUNDARY FLOW =              6.55       GW BOUNDARY FLOW =              0.40


                                    OUT                                        OUT
                                    ---                                        ---
   EVAPOTRANSPIRATION =        1501239.13     EVAPOTRANSPIRATION =           2597.48
           STREAMFLOW =        1153361.66             STREAMFLOW =          11783.72
     GW BOUNDARY FLOW =           4019.65       GW BOUNDARY FLOW =             35.75

   INFLOWS - OUTFLOWS =         -62226.95     INFLOWS - OUTFLOWS =         -14416.54
             --------                                   --------

 TOTAL STORAGE CHANGE =         -60416.05         STORAGE CHANGE =         -14408.94
       --------------                             --------------
         LAND SURFACE =         342485.19           LAND SURFACE =           -464.47
            SOIL ZONE =        1598762.84              SOIL ZONE =          -1911.60
     UNSATURATED ZONE =       -2684053.41       UNSATURATED ZONE =         -13158.26
       SATURATED ZONE =         682389.33         SATURATED ZONE =           1125.39

 OVERALL BUDGET ERROR =          -1810.89           BUDGET ERROR =             -7.61


  PERCENT DISCREPANCY =             -0.07    PERCENT DISCREPANCY =             -0.05



1
 SUMMARY VOLUMETRIC BUDGET FOR GSFLOW 
 DATE: 01 27 1991              CUMULATIVE TIME STEP:      27
 MODFLOW STRESS PERIOD      5     CURRENT TIME STEP:     119     ITERATIONS:       5

 -----------------------------------------------------------------------------------

   CUMULATIVE VOLUMES               L**3   RATES FOR THIS TIME STEP           L**3/T
   ------------------                      ------------------------

                                     IN                                         IN
                                     --                                         --
        PRECIPITATION =        2596386.94          PRECIPITATION =                  
           STREAMFLOW =                               STREAMFLOW =                  
     GW BOUNDARY FLOW =              9.65       GW BOUNDARY FLOW =              0.48


                                    OUT                                        OUT
                                    ---                                        ---
   EVAPOTRANSPIRATION =        1528095.15     EVAPOTRANSPIRATION =           1840.16
           STREAMFLOW =        1236053.64             STREAMFLOW =          11846.17
     GW BOUNDARY FLOW =           4269.84       GW BOUNDARY FLOW =             35.74

   INFLOWS - OUTFLOWS =        -172022.03     INFLOWS - OUTFLOWS =         -13721.59
             --------                                   --------

 TOTAL STORAGE CHANGE =        -170151.73         STORAGE CHANGE =         -13712.71
       --------------                             --------------
         LAND SURFACE =         307905.41           LAND SURFACE =           -546.58
            SOIL ZONE =        1608240.92              SOIL ZONE =          -1083.32
     UNSATURATED ZONE =       -2774230.82       UNSATURATED ZONE =         -12667.50
       SATURATED ZONE =         687932.76         SATURATED ZONE =            584.68

 OVERALL BUDGET ERROR =          -1870.30           BUDGET ERROR =             -8.87


  PERCENT DISCREPANCY =             -0.07    PERCENT DISCREPANCY =             -0.06



1
 SUMMARY VOLUMETRIC BUDGET FOR GSFLOW 
 DATE: 02 03 1991              CUMULATIVE TIME STEP:       3
 MODFLOW STRESS PERIOD      6     CURRENT TIME STEP:     126     ITERATIONS:       5

 -----------------------------------------------------------------------------------

   CUMULATIVE VOLUMES               L**3   RATES FOR THIS TIME STEP           L**3/T
   ------------------                      ------------------------

                                     IN                                         IN
                                     --                                         --
        PRECIPITATION =        3228422.31          PRECIPITATION =          30459.53
           STREAMFLOW =                               STREAMFLOW =                  
     GW BOUNDARY FLOW =             13.31       GW BOUNDARY FLOW =              0.55


                                    OUT                                        OUT
                                    ---                                        ---
   EVAPOTRANSPIRATION =        1637050.33     EVAPOTRANSPIRATION =          21776.67
           STREAMFLOW =        1319095.27             STREAMFLOW =          11892.60
     GW BOUNDARY FLOW =           4519.96       GW BOUNDARY FLOW =             35.73

   INFLOWS - OUTFLOWS =         267770.06     INFLOWS - OUTFLOWS =          -3244.91
             --------                                   --------

 TOTAL STORAGE CHANGE =         269709.24         STORAGE CHANGE =          -3234.54
       --------------                             --------------
         LAND SURFACE =         148156.03           LAND SURFACE =         -26520.09
            SOIL ZONE =        2293789.85              SOIL ZONE =          35556.87
     UNSATURATED ZONE =       -2861110.87       UNSATURATED ZONE =         -12199.68
       SATURATED ZONE =         688874.24         SATURATED ZONE =            -71.64

 OVERALL BUDGET ERROR =          -1939.18           BUDGET ERROR =            -10.37


  PERCENT DISCREPANCY =             -0.06    PERCENT DISCREPANCY =             -0.03



1
 SUMMARY VOLUMETRIC BUDGET FOR GSFLOW 
 DATE: 02 10 1991              CUMULATIVE TIME STEP:      10
 MODFLOW STRESS PERIOD      6     CURRENT TIME STEP:     133     ITERATIONS:       5

 -----------------------------------------------------------------------------------

   CUMULATIVE VOLUMES               L**3   RATES FOR THIS TIME STEP           L**3/T
   ------------------                      ------------------------

                                     IN                                         IN
                                     --                                         --
        PRECIPITATION =        3510173.01          PRECIPITATION =                  
           STREAMFLOW =                               STREAMFLOW =                  
     GW BOUNDARY FLOW =             17.48       GW BOUNDARY FLOW =              0.63


                                    OUT                                        OUT
                                    ---                                        ---
   EVAPOTRANSPIRATION =        1806743.17     EVAPOTRANSPIRATION =          25967.88
           STREAMFLOW =        1401169.33             STREAMFLOW =          11861.99
     GW BOUNDARY FLOW =           4769.94       GW BOUNDARY FLOW =             35.71

   INFLOWS - OUTFLOWS =         297508.06     INFLOWS - OUTFLOWS =         -37864.95
             --------                                   --------

 TOTAL STORAGE CHANGE =         299487.99         STORAGE CHANGE =         -37853.41
       --------------                             --------------
         LAND SURFACE =          66705.78           LAND SURFACE =          -7439.35
            SOIL ZONE =        2489139.52              SOIL ZONE =         -18263.94
     UNSATURATED ZONE =       -2944452.29       UNSATURATED ZONE =         -11720.21
       SATURATED ZONE =         688094.98         SATURATED ZONE =           -429.92

 OVERALL BUDGET ERROR =          -1979.93           BUDGET ERROR =            -11.54


  PERCENT DISCREPANCY =             -0.06    PERCENT DISCREPANCY =             -0.03



1
 SUMMARY VOLUMETRIC BUDGET FOR GSFLOW 
 DATE: 02 17 1991              CUMULATIVE TIME STEP:      17
 MODFLOW STRESS PERIOD      6     CURRENT TIME STEP:     140     ITERATIONS:       5

 -----------------------------------------------------------------------------------

   CUMULATIVE VOLUMES               L**3   RATES FOR THIS TIME STEP           L**3/T
   ------------------                      ------------------------

                                     IN                                         IN
                                     --                                         --
        PRECIPITATION =        3510173.01          PRECIPITATION =                  
           STREAMFLOW =                               STREAMFLOW =                  
     GW BOUNDARY FLOW =             22.16       GW BOUNDARY FLOW =              0.70


                                    OUT                                        OUT
                                    ---                                        ---
   EVAPOTRANSPIRATION =        2052306.12     EVAPOTRANSPIRATION =          24098.24
           STREAMFLOW =        1484474.26             STREAMFLOW =          11919.51
     GW BOUNDARY FLOW =           5019.83       GW BOUNDARY FLOW =             35.67

   INFLOWS - OUTFLOWS =         -31605.05     INFLOWS - OUTFLOWS =         -36052.73
             --------                                   --------

 TOTAL STORAGE CHANGE =         -29535.77         STORAGE CHANGE =         -36039.33
       --------------                             --------------
         LAND SURFACE =          14950.27           LAND SURFACE =           -975.14
            SOIL ZONE =        2296889.12              SOIL ZONE =         -22972.22
     UNSATURATED ZONE =       -3024207.87       UNSATURATED ZONE =         -11113.62
       SATURATED ZONE =         682832.71         SATURATED ZONE =           -978.35

 OVERALL BUDGET ERROR =          -2069.28           BUDGET ERROR =            -13.39


  PERCENT DISCREPANCY =             -0.06    PERCENT DISCREPANCY =             -0.04



1
 SUMMARY VOLUMETRIC BUDGET FOR GSFLOW 
 DATE: 02 24 1991              CUMULATIVE TIME STEP:      24
 MODFLOW STRESS PERIOD      6     CURRENT TIME STEP:     147     ITERATIONS:       5

 -----------------------------------------------------------------------------------

   CUMULATIVE VOLUMES               L**3   RATES FOR THIS TIME STEP           L**3/T
   ------------------                      ------------------------

                                     IN                                         IN
                                     --                                         --
        PRECIPITATION =        3510173.01          PRECIPITATION =                  
           STREAMFLOW =                               STREAMFLOW =                  
     GW BOUNDARY FLOW =             27.30       GW BOUNDARY FLOW =              0.76


                                    OUT                                        OUT
                                    ---                                        ---
   EVAPOTRANSPIRATION =        2268273.71     EVAPOTRANSPIRATION =          21972.48
           STREAMFLOW =        1566723.78             STREAMFLOW =          11887.11
     GW BOUNDARY FLOW =           5268.83       GW BOUNDARY FLOW =             35.50

   INFLOWS - OUTFLOWS =        -330066.01     INFLOWS - OUTFLOWS =         -33894.33
             --------                                   --------

 TOTAL STORAGE CHANGE =        -327950.60         STORAGE CHANGE =         -33879.37
       --------------                             --------------
         LAND SURFACE =           6004.72           LAND SURFACE =           -187.76
            SOIL ZONE =        2091381.90              SOIL ZONE =         -21475.36
     UNSATURATED ZONE =       -3100378.13       UNSATURATED ZONE =         -10693.61
       SATURATED ZONE =         675040.91         SATURATED ZONE =          -1522.64

 OVERALL BUDGET ERROR =          -2115.40           BUDGET ERROR =            -14.96


  PERCENT DISCREPANCY =             -0.06    PERCENT DISCREPANCY =             -0.04



1
 SUMMARY VOLUMETRIC BUDGET FOR GSFLOW 
 DATE: 03 03 1991              CUMULATIVE TIME STEP:       3
 MODFLOW STRESS PERIOD      7     CURRENT TIME STEP:     154     ITERATIONS:       5

 -----------------------------------------------------------------------------------

   CUMULATIVE VOLUMES               L**3   RATES FOR THIS TIME STEP           L**3/T
   ------------------                      ------------------------

                                     IN                                         IN
                                     --                                         --
        PRECIPITATION =        6220189.63          PRECIPITATION =        1243187.24
           STREAMFLOW =                               STREAMFLOW =                  
     GW BOUNDARY FLOW =             32.91       GW BOUNDARY FLOW =              0.83


                                    OUT                                        OUT
                                    ---                                        ---
   EVAPOTRANSPIRATION =        2421564.87     EVAPOTRANSPIRATION =           8347.07
           STREAMFLOW =        1649561.72             STREAMFLOW =          11815.40
     GW BOUNDARY FLOW =           5516.58       GW BOUNDARY FLOW =             35.32

   INFLOWS - OUTFLOWS =        2143579.37     INFLOWS - OUTFLOWS =        1222990.28
             --------                                   --------

 TOTAL STORAGE CHANGE =        2145796.59         STORAGE CHANGE =        1223006.68
       --------------                             --------------
         LAND SURFACE =        2351702.99           LAND SURFACE =         893791.18
            SOIL ZONE =        2307050.26              SOIL ZONE =         341860.46
     UNSATURATED ZONE =       -3173484.49       UNSATURATED ZONE =         -10288.27
       SATURATED ZONE =         660527.83         SATURATED ZONE =          -2356.69

 OVERALL BUDGET ERROR =          -2217.22           BUDGET ERROR =            -16.40


  PERCENT DISCREPANCY =             -0.04    PERCENT DISCREPANCY =             -0.00



1
 SUMMARY VOLUMETRIC BUDGET FOR GSFLOW 
 DATE: 03 10 1991              CUMULATIVE TIME STEP:      10
 MODFLOW STRESS PERIOD      7     CURRENT TIME STEP:     161     ITERATIONS:       5

 -----------------------------------------------------------------------------------

   CUMULATIVE VOLUMES               L**3   RATES FOR THIS TIME STEP           L**3/T
   ------------------                      ------------------------

                                     IN                                         IN
                                     --                                         --
        PRECIPITATION =        8746030.42          PRECIPITATION =          32888.55
           STREAMFLOW =                               STREAMFLOW =                  
     GW BOUNDARY FLOW =             38.95       GW BOUNDARY FLOW =              0.89


                                    OUT                                        OUT
                                    ---                                        ---
   EVAPOTRANSPIRATION =        2485681.82     EVAPOTRANSPIRATION =           7389.60
           STREAMFLOW =        1756075.05             STREAMFLOW =          12551.53
     GW BOUNDARY FLOW =           5763.93       GW BOUNDARY FLOW =             35.23

   INFLOWS - OUTFLOWS =        4498548.57     INFLOWS - OUTFLOWS =          12913.08
             --------                                   --------

 TOTAL STORAGE CHANGE =        4500843.38         STORAGE CHANGE =          12931.10
       --------------                             --------------
         LAND SURFACE =        2489047.44           LAND SURFACE =         -20139.62
            SOIL ZONE =        4557117.80              SOIL ZONE =          36766.68
     UNSATURATED ZONE =       -3191612.49       UNSATURATED ZONE =          -1483.51
       SATURATED ZONE =         646290.63         SATURATED ZONE =          -2212.45

 OVERALL BUDGET ERROR =          -2294.82           BUDGET ERROR =            -18.01


  PERCENT DISCREPANCY =             -0.03    PERCENT DISCREPANCY =             -0.05



1
 SUMMARY VOLUMETRIC BUDGET FOR GSFLOW 
 DATE: 03 17 1991              CUMULATIVE TIME STEP:      17
 MODFLOW STRESS PERIOD      7     CURRENT TIME STEP:     168     ITERATIONS:       5

 -----------------------------------------------------------------------------------

   CUMULATIVE VOLUMES               L**3   RATES FOR THIS TIME STEP           L**3/T
   ------------------                      ------------------------

                                     IN                                         IN
                                     --                                         --
        PRECIPITATION =        9897129.71          PRECIPITATION =         157865.04
           STREAMFLOW =                               STREAMFLOW =                  
     GW BOUNDARY FLOW =             45.41       GW BOUNDARY FLOW =              0.95


                                    OUT                                        OUT
                                    ---                                        ---
   EVAPOTRANSPIRATION =        2509139.98     EVAPOTRANSPIRATION =           6883.03
           STREAMFLOW =        1845274.16             STREAMFLOW =          12799.79
     GW BOUNDARY FLOW =           6010.10       GW BOUNDARY FLOW =             35.11

   INFLOWS - OUTFLOWS =        5536750.88     INFLOWS - OUTFLOWS =         138148.06
             --------                                   --------

 TOTAL STORAGE CHANGE =        5539155.47         STORAGE CHANGE =         138167.23
       --------------                             --------------
         LAND SURFACE =        3616636.03           LAND SURFACE =         151296.14
            SOIL ZONE =        4495305.78              SOIL ZONE =          -8468.54
     UNSATURATED ZONE =       -3203564.14       UNSATURATED ZONE =          -2116.01
       SATURATED ZONE =         630777.80         SATURATED ZONE =          -2544.35

 OVERALL BUDGET ERROR =          -2404.59           BUDGET ERROR =            -19.17


  PERCENT DISCREPANCY =             -0.02    PERCENT DISCREPANCY =             -0.01



1
 SUMMARY VOLUMETRIC BUDGET FOR GSFLOW 
 DATE: 03 24 1991              CUMULATIVE TIME STEP:      24
 MODFLOW STRESS PERIOD      7     CURRENT TIME STEP:     175     ITERATIONS:       5

 -----------------------------------------------------------------------------------

   CUMULATIVE VOLUMES               L**3   RATES FOR THIS TIME STEP           L**3/T
   ------------------                      ------------------------

                                     IN                                         IN
                                     --                                         --
        PRECIPITATION =        1.1673D+07          PRECIPITATION =        1230031.83
           STREAMFLOW =                               STREAMFLOW =                  
     GW BOUNDARY FLOW =             52.28       GW BOUNDARY FLOW =              1.01


                                    OUT                                        OUT
                                    ---                                        ---
   EVAPOTRANSPIRATION =        2543766.89     EVAPOTRANSPIRATION =           4288.54
           STREAMFLOW =        1936448.12             STREAMFLOW =          13195.33
     GW BOUNDARY FLOW =           6255.40       GW BOUNDARY FLOW =             34.99

   INFLOWS - OUTFLOWS =        7186693.37     INFLOWS - OUTFLOWS =        1212513.98
             --------                                   --------

 TOTAL STORAGE CHANGE =        7189212.46         STORAGE CHANGE =        1212533.47
       --------------                             --------------
         LAND SURFACE =        5346769.67           LAND SURFACE =        1227877.70
            SOIL ZONE =        4448853.65              SOIL ZONE =         -10359.33
     UNSATURATED ZONE =       -3219526.86       UNSATURATED ZONE =          -2426.68
       SATURATED ZONE =         613116.00         SATURATED ZONE =          -2558.21

 OVERALL BUDGET ERROR =          -2519.09           BUDGET ERROR =            -19.50


  PERCENT DISCREPANCY =             -0.02    PERCENT DISCREPANCY =             -0.00



1
 SUMMARY VOLUMETRIC BUDGET FOR GSFLOW 
 DATE: 03 31 1991              CUMULATIVE TIME STEP:      31
 MODFLOW STRESS PERIOD      7     CURRENT TIME STEP:     182     ITERATIONS:       5

 -----------------------------------------------------------------------------------

   CUMULATIVE VOLUMES               L**3   RATES FOR THIS TIME STEP           L**3/T
   ------------------                      ------------------------

                                     IN                                         IN
                                     --                                         --
        PRECIPITATION =        1.2495D+07          PRECIPITATION =                  
           STREAMFLOW =                               STREAMFLOW =                  
     GW BOUNDARY FLOW =             59.55       GW BOUNDARY FLOW =              1.06


                                    OUT                                        OUT
                                    ---                                        ---
   EVAPOTRANSPIRATION =        2664784.93     EVAPOTRANSPIRATION =          47925.31
           STREAMFLOW =        2031519.35             STREAMFLOW =          14250.80
     GW BOUNDARY FLOW =           6500.01       GW BOUNDARY FLOW =             34.92

   INFLOWS - OUTFLOWS =        7792580.54     INFLOWS - OUTFLOWS =         -62209.97
             --------                                   --------

 TOTAL STORAGE CHANGE =        7795238.14         STORAGE CHANGE =         -62189.91
       --------------                             --------------
         LAND SURFACE =        5891403.37           LAND SURFACE =        -150773.77
            SOIL ZONE =        4544375.70              SOIL ZONE =          92423.07
     UNSATURATED ZONE =       -3235396.24       UNSATURATED ZONE =          -1212.03
       SATURATED ZONE =         594855.31         SATURATED ZONE =          -2627.18

 OVERALL BUDGET ERROR =          -2657.59           BUDGET ERROR =            -20.06


  PERCENT DISCREPANCY =             -0.02    PERCENT DISCREPANCY =             -0.03



1
 SUMMARY VOLUMETRIC BUDGET FOR GSFLOW 
 DATE: 04 07 1991              CUMULATIVE TIME STEP:       7
 MODFLOW STRESS PERIOD      8     CURRENT TIME STEP:     189     ITERATIONS:       6

 -----------------------------------------------------------------------------------

   CUMULATIVE VOLUMES               L**3   RATES FOR THIS TIME STEP           L**3/T
   ------------------                      ------------------------

                                     IN                                         IN
                                     --                                         --
        PRECIPITATION =        1.3018D+07          PRECIPITATION =                  
           STREAMFLOW =                               STREAMFLOW =                  
     GW BOUNDARY FLOW =             67.18       GW BOUNDARY FLOW =              1.11


                                    OUT                                        OUT
                                    ---                                        ---
   EVAPOTRANSPIRATION =        2972668.21     EVAPOTRANSPIRATION =          15898.60
           STREAMFLOW =        2260032.90             STREAMFLOW =          42442.91
     GW BOUNDARY FLOW =           6746.10       GW BOUNDARY FLOW =             35.32

   INFLOWS - OUTFLOWS =        7778356.72     INFLOWS - OUTFLOWS =         -58375.71
             --------                                   --------

 TOTAL STORAGE CHANGE =        7781100.26         STORAGE CHANGE =         -58367.31
       --------------                             --------------
         LAND SURFACE =        4251813.71           LAND SURFACE =         -72897.15
            SOIL ZONE =        6151490.13              SOIL ZONE =           5303.49
     UNSATURATED ZONE =       -3200998.38       UNSATURATED ZONE =          11031.38
       SATURATED ZONE =         578794.79         SATURATED ZONE =          -1805.02

 OVERALL BUDGET ERROR =          -2743.54           BUDGET ERROR =             -8.41


  PERCENT DISCREPANCY =             -0.02    PERCENT DISCREPANCY =             -0.01



1
 SUMMARY VOLUMETRIC BUDGET FOR GSFLOW 
 DATE: 04 14 1991              CUMULATIVE TIME STEP:      14
 MODFLOW STRESS PERIOD      8     CURRENT TIME STEP:     196     ITERATIONS:       7

 -----------------------------------------------------------------------------------

   CUMULATIVE VOLUMES               L**3   RATES FOR THIS TIME STEP           L**3/T
   ------------------                      ------------------------

                                     IN                                         IN
                                     --                                         --
        PRECIPITATION =        1.3018D+07          PRECIPITATION =                  
           STREAMFLOW =                               STREAMFLOW =                  
     GW BOUNDARY FLOW =             75.14       GW BOUNDARY FLOW =              1.16


                                    OUT                                        OUT
                                    ---                                        ---
   EVAPOTRANSPIRATION =        3156591.03     EVAPOTRANSPIRATION =          42060.22
           STREAMFLOW =        2686308.18             STREAMFLOW =          74043.13
     GW BOUNDARY FLOW =           6994.48       GW BOUNDARY FLOW =             35.60

   INFLOWS - OUTFLOWS =        7167918.19     INFLOWS - OUTFLOWS =        -116137.79
             --------                                   --------

 TOTAL STORAGE CHANGE =        7170695.74         STORAGE CHANGE =        -116134.96
       --------------                             --------------
         LAND SURFACE =        3591590.24           LAND SURFACE =        -191145.76
            SOIL ZONE =        6136248.97              SOIL ZONE =          65863.40
     UNSATURATED ZONE =       -3127253.36       UNSATURATED ZONE =          10065.52
       SATURATED ZONE =         570109.88         SATURATED ZONE =           -918.12

 OVERALL BUDGET ERROR =          -2777.55           BUDGET ERROR =             -2.83


  PERCENT DISCREPANCY =             -0.02    PERCENT DISCREPANCY =             -0.00



1
 SUMMARY VOLUMETRIC BUDGET FOR GSFLOW 
 DATE: 04 21 1991              CUMULATIVE TIME STEP:      21
 MODFLOW STRESS PERIOD      8     CURRENT TIME STEP:     203     ITERATIONS:       9

 -----------------------------------------------------------------------------------

   CUMULATIVE VOLUMES               L**3   RATES FOR THIS TIME STEP           L**3/T
   ------------------                      ------------------------

                                     IN                                         IN
                                     --                                         --
        PRECIPITATION =        1.3034D+07          PRECIPITATION =                  
           STREAMFLOW =                               STREAMFLOW =                  
     GW BOUNDARY FLOW =             83.41       GW BOUNDARY FLOW =              1.20


                                    OUT                                        OUT
                                    ---                                        ---
   EVAPOTRANSPIRATION =        3410212.04     EVAPOTRANSPIRATION =          46843.68
           STREAMFLOW =        3238217.87             STREAMFLOW =          90769.41
     GW BOUNDARY FLOW =           7243.55       GW BOUNDARY FLOW =             35.67

   INFLOWS - OUTFLOWS =        6378472.05     INFLOWS - OUTFLOWS =        -137647.55
             --------                                   --------

 TOTAL STORAGE CHANGE =        6381263.91         STORAGE CHANGE =        -137646.59
       --------------                             --------------
         LAND SURFACE =        2434561.50           LAND SURFACE =        -213934.43
            SOIL ZONE =        6434418.33              SOIL ZONE =          64672.00
     UNSATURATED ZONE =       -3053059.16       UNSATURATED ZONE =          12048.13
       SATURATED ZONE =         565343.24         SATURATED ZONE =           -432.28

 OVERALL BUDGET ERROR =          -2791.86           BUDGET ERROR =             -0.97


  PERCENT DISCREPANCY =             -0.02    PERCENT DISCREPANCY =             -0.00



1
 SUMMARY VOLUMETRIC BUDGET FOR GSFLOW 
 DATE: 04 28 1991              CUMULATIVE TIME STEP:      28
 MODFLOW STRESS PERIOD      8     CURRENT TIME STEP:     210     ITERATIONS:       7

 -----------------------------------------------------------------------------------

   CUMULATIVE VOLUMES               L**3   RATES FOR THIS TIME STEP           L**3/T
   ------------------                      ------------------------

                                     IN                                         IN
                                     --                                         --
        PRECIPITATION =        1.3303D+07          PRECIPITATION =                  
           STREAMFLOW =                               STREAMFLOW =                  
     GW BOUNDARY FLOW =             91.94       GW BOUNDARY FLOW =              1.24


                                    OUT                                        OUT
                                    ---                                        ---
   EVAPOTRANSPIRATION =        3678314.00     EVAPOTRANSPIRATION =          58070.50
           STREAMFLOW =        3885724.79             STREAMFLOW =          92118.94
     GW BOUNDARY FLOW =           7492.90       GW BOUNDARY FLOW =             35.57

   INFLOWS - OUTFLOWS =        5731990.76     INFLOWS - OUTFLOWS =        -150223.77
             --------                                   --------

 TOTAL STORAGE CHANGE =        5734795.92         STORAGE CHANGE =        -150222.55
       --------------                             --------------
         LAND SURFACE =        1696015.43           LAND SURFACE =        -133870.58
            SOIL ZONE =        6442535.19              SOIL ZONE =         -28016.07
     UNSATURATED ZONE =       -2969101.71       UNSATURATED ZONE =          11470.97
       SATURATED ZONE =         565347.02         SATURATED ZONE =            193.13

 OVERALL BUDGET ERROR =          -2805.16           BUDGET ERROR =             -1.22


  PERCENT DISCREPANCY =             -0.02    PERCENT DISCREPANCY =             -0.00



1
 SUMMARY VOLUMETRIC BUDGET FOR GSFLOW 
 DATE: 05 05 1991              CUMULATIVE TIME STEP:       5
 MODFLOW STRESS PERIOD      9     CURRENT TIME STEP:     217     ITERATIONS:       7

 -----------------------------------------------------------------------------------

   CUMULATIVE VOLUMES               L**3   RATES FOR THIS TIME STEP           L**3/T
   ------------------                      ------------------------

                                     IN                                         IN
                                     --                                         --
        PRECIPITATION =        1.3510D+07          PRECIPITATION =                  
           STREAMFLOW =                               STREAMFLOW =                  
     GW BOUNDARY FLOW =            100.74       GW BOUNDARY FLOW =              1.27


                                    OUT                                        OUT
                                    ---                                        ---
   EVAPOTRANSPIRATION =        4055071.76     EVAPOTRANSPIRATION =          90182.26
           STREAMFLOW =        4457023.28             STREAMFLOW =          83023.16
     GW BOUNDARY FLOW =           7740.58       GW BOUNDARY FLOW =             35.33

   INFLOWS - OUTFLOWS =        4989973.25     INFLOWS - OUTFLOWS =        -173239.48
             --------                                   --------

 TOTAL STORAGE CHANGE =        4992786.09         STORAGE CHANGE =        -173238.80
       --------------                             --------------
         LAND SURFACE =        1002302.70           LAND SURFACE =        -146993.91
            SOIL ZONE =        6321695.55              SOIL ZONE =         -36476.83
     UNSATURATED ZONE =       -2896816.35       UNSATURATED ZONE =          10155.71
       SATURATED ZONE =         565604.19         SATURATED ZONE =             76.23

 OVERALL BUDGET ERROR =          -2812.84           BUDGET ERROR =             -0.68


  PERCENT DISCREPANCY =             -0.02    PERCENT DISCREPANCY =             -0.00



1
 SUMMARY VOLUMETRIC BUDGET FOR GSFLOW 
 DATE: 05 12 1991              CUMULATIVE TIME STEP:      12
 MODFLOW STRESS PERIOD      9     CURRENT TIME STEP:     224     ITERATIONS:       7

 -----------------------------------------------------------------------------------

   CUMULATIVE VOLUMES               L**3   RATES FOR THIS TIME STEP           L**3/T
   ------------------                      ------------------------

                                     IN                                         IN
                                     --                                         --
        PRECIPITATION =        1.4029D+07          PRECIPITATION =                  
           STREAMFLOW =                               STREAMFLOW =                  
     GW BOUNDARY FLOW =            109.81       GW BOUNDARY FLOW =              1.31


                                    OUT                                        OUT
                                    ---                                        ---
   EVAPOTRANSPIRATION =        4450459.03     EVAPOTRANSPIRATION =          68750.33
           STREAMFLOW =        4992242.58             STREAMFLOW =          85377.76
     GW BOUNDARY FLOW =           7986.60       GW BOUNDARY FLOW =             35.17

   INFLOWS - OUTFLOWS =        4578643.75     INFLOWS - OUTFLOWS =        -154161.94
             --------                                   --------

 TOTAL STORAGE CHANGE =        4581459.69         STORAGE CHANGE =        -154161.49
       --------------                             --------------
         LAND SURFACE =         554756.95           LAND SURFACE =        -204088.73
            SOIL ZONE =        6293306.48              SOIL ZONE =          40896.03
     UNSATURATED ZONE =       -2834942.73       UNSATURATED ZONE =           8752.06
       SATURATED ZONE =         568338.99         SATURATED ZONE =            279.16

 OVERALL BUDGET ERROR =          -2815.93           BUDGET ERROR =             -0.45


  PERCENT DISCREPANCY =             -0.02    PERCENT DISCREPANCY =             -0.00



1
 SUMMARY VOLUMETRIC BUDGET FOR GSFLOW 
 DATE: 05 19 1991              CUMULATIVE TIME STEP:      19
 MODFLOW STRESS PERIOD      9     CURRENT TIME STEP:     231     ITERATIONS:       7

 -----------------------------------------------------------------------------------

   CUMULATIVE VOLUMES               L**3   RATES FOR THIS TIME STEP           L**3/T
   ------------------                      ------------------------

                                     IN                                         IN
                                     --                                         --
        PRECIPITATION =        1.4365D+07          PRECIPITATION =                  
           STREAMFLOW =                               STREAMFLOW =                  
     GW BOUNDARY FLOW =            119.15       GW BOUNDARY FLOW =              1.35


                                    OUT                                        OUT
                                    ---                                        ---
   EVAPOTRANSPIRATION =        4888894.73     EVAPOTRANSPIRATION =          20369.32
           STREAMFLOW =        5438391.08             STREAMFLOW =          55141.00
     GW BOUNDARY FLOW =           8230.34       GW BOUNDARY FLOW =             34.64

   INFLOWS - OUTFLOWS =        4029981.32     INFLOWS - OUTFLOWS =         -75543.61
             --------                                   --------

 TOTAL STORAGE CHANGE =        4032797.45         STORAGE CHANGE =         -75543.98
       --------------                             --------------
         LAND SURFACE =         218155.85           LAND SURFACE =         -22216.95
            SOIL ZONE =        6030153.15              SOIL ZONE =         -59323.40
     UNSATURATED ZONE =       -2787107.75       UNSATURATED ZONE =           5427.19
       SATURATED ZONE =         571596.20         SATURATED ZONE =            569.18

 OVERALL BUDGET ERROR =          -2816.14           BUDGET ERROR =              0.37


  PERCENT DISCREPANCY =             -0.02    PERCENT DISCREPANCY =              0.00



1
 SUMMARY VOLUMETRIC BUDGET FOR GSFLOW 
 DATE: 05 26 1991              CUMULATIVE TIME STEP:      26
 MODFLOW STRESS PERIOD      9     CURRENT TIME STEP:     238     ITERATIONS:       6

 -----------------------------------------------------------------------------------

   CUMULATIVE VOLUMES               L**3   RATES FOR THIS TIME STEP           L**3/T
   ------------------                      ------------------------

                                     IN                                         IN
                                     --                                         --
        PRECIPITATION =        1.4426D+07          PRECIPITATION =                  
           STREAMFLOW =                               STREAMFLOW =                  
     GW BOUNDARY FLOW =            128.77       GW BOUNDARY FLOW =              1.39


                                    OUT                                        OUT
                                    ---                                        ---
   EVAPOTRANSPIRATION =        5573370.97     EVAPOTRANSPIRATION =          76940.71
           STREAMFLOW =        5741757.52             STREAMFLOW =          30970.51
     GW BOUNDARY FLOW =           8470.97       GW BOUNDARY FLOW =             34.12

   INFLOWS - OUTFLOWS =        3103026.92     INFLOWS - OUTFLOWS =        -107943.96
             --------                                   --------

 TOTAL STORAGE CHANGE =        3105841.52         STORAGE CHANGE =        -107943.18
       --------------                             --------------
         LAND SURFACE =          51493.15           LAND SURFACE =          -7682.13
            SOIL ZONE =        5248456.56              SOIL ZONE =         -99895.16
     UNSATURATED ZONE =       -2766915.65       UNSATURATED ZONE =           -136.74
       SATURATED ZONE =         572807.47         SATURATED ZONE =           -229.15

 OVERALL BUDGET ERROR =          -2814.60           BUDGET ERROR =             -0.78


  PERCENT DISCREPANCY =             -0.02    PERCENT DISCREPANCY =             -0.00



1
 SUMMARY VOLUMETRIC BUDGET FOR GSFLOW 
 DATE: 06 02 1991              CUMULATIVE TIME STEP:       2
 MODFLOW STRESS PERIOD     10     CURRENT TIME STEP:     245     ITERATIONS:       6

 -----------------------------------------------------------------------------------

   CUMULATIVE VOLUMES               L**3   RATES FOR THIS TIME STEP           L**3/T
   ------------------                      ------------------------

                                     IN                                         IN
                                     --                                         --
        PRECIPITATION =        1.4671D+07          PRECIPITATION =                  
           STREAMFLOW =                               STREAMFLOW =                  
     GW BOUNDARY FLOW =            138.68       GW BOUNDARY FLOW =              1.43


                                    OUT                                        OUT
                                    ---                                        ---
   EVAPOTRANSPIRATION =        6162181.96     EVAPOTRANSPIRATION =         127630.39
           STREAMFLOW =        5951187.38             STREAMFLOW =          25624.75
     GW BOUNDARY FLOW =           8709.05       GW BOUNDARY FLOW =             33.87

   INFLOWS - OUTFLOWS =        2549035.09     INFLOWS - OUTFLOWS =        -153287.58
             --------                                   --------

 TOTAL STORAGE CHANGE =        2551869.26         STORAGE CHANGE =        -153284.05
       --------------                             --------------
         LAND SURFACE =          18305.18           LAND SURFACE =          -3906.15
            SOIL ZONE =        4746441.91              SOIL ZONE =        -145297.11
     UNSATURATED ZONE =       -2781303.89       UNSATURATED ZONE =          -3164.42
       SATURATED ZONE =         568426.06         SATURATED ZONE =           -916.38

 OVERALL BUDGET ERROR =          -2834.18           BUDGET ERROR =             -3.52


  PERCENT DISCREPANCY =             -0.02    PERCENT DISCREPANCY =             -0.00



1
 SUMMARY VOLUMETRIC BUDGET FOR GSFLOW 
 DATE: 06 09 1991              CUMULATIVE TIME STEP:       9
 MODFLOW STRESS PERIOD     10     CURRENT TIME STEP:     252     ITERATIONS:       7

 -----------------------------------------------------------------------------------

   CUMULATIVE VOLUMES               L**3   RATES FOR THIS TIME STEP           L**3/T
   ------------------                      ------------------------

                                     IN                                         IN
                                     --                                         --
        PRECIPITATION =        1.4671D+07          PRECIPITATION =                  
           STREAMFLOW =                               STREAMFLOW =                  
     GW BOUNDARY FLOW =            148.87       GW BOUNDARY FLOW =              1.47


                                    OUT                                        OUT
                                    ---                                        ---
   EVAPOTRANSPIRATION =        6951080.43     EVAPOTRANSPIRATION =         172555.02
           STREAMFLOW =        6101514.37             STREAMFLOW =          18643.44
     GW BOUNDARY FLOW =           8944.99       GW BOUNDARY FLOW =             33.58

   INFLOWS - OUTFLOWS =        1609583.88     INFLOWS - OUTFLOWS =        -191230.58
             --------                                   --------

 TOTAL STORAGE CHANGE =        1612457.98         STORAGE CHANGE =        -191224.36
       --------------                             --------------
         LAND SURFACE =           3417.33           LAND SURFACE =          -2018.63
            SOIL ZONE =        3869628.47              SOIL ZONE =        -180599.01
     UNSATURATED ZONE =       -2818240.70       UNSATURATED ZONE =          -6469.38
       SATURATED ZONE =         557652.88         SATURATED ZONE =          -2137.34

 OVERALL BUDGET ERROR =          -2874.11           BUDGET ERROR =             -6.21


  PERCENT DISCREPANCY =             -0.02    PERCENT DISCREPANCY =             -0.00



1
 SUMMARY VOLUMETRIC BUDGET FOR GSFLOW 
 DATE: 06 16 1991              CUMULATIVE TIME STEP:      16
 MODFLOW STRESS PERIOD     10     CURRENT TIME STEP:     259     ITERATIONS:       6

 -----------------------------------------------------------------------------------

   CUMULATIVE VOLUMES               L**3   RATES FOR THIS TIME STEP           L**3/T
   ------------------                      ------------------------

                                     IN                                         IN
                                     --                                         --
        PRECIPITATION =        1.4671D+07          PRECIPITATION =                  
           STREAMFLOW =                               STREAMFLOW =                  
     GW BOUNDARY FLOW =            159.36       GW BOUNDARY FLOW =              1.52


                                    OUT                                        OUT
                                    ---                                        ---
   EVAPOTRANSPIRATION =        7968157.78     EVAPOTRANSPIRATION =         117053.56
           STREAMFLOW =        6218934.18             STREAMFLOW =          16213.78
     GW BOUNDARY FLOW =           9179.19       GW BOUNDARY FLOW =             33.38

   INFLOWS - OUTFLOWS =         474862.99     INFLOWS - OUTFLOWS =        -133299.21
             --------                                   --------

 TOTAL STORAGE CHANGE =         477801.19         STORAGE CHANGE =        -133288.31
       --------------                             --------------
         LAND SURFACE =             89.42           LAND SURFACE =            -43.13
            SOIL ZONE =        2844255.48              SOIL ZONE =        -113386.24
     UNSATURATED ZONE =       -2904236.41       UNSATURATED ZONE =         -16209.97
       SATURATED ZONE =         537692.71         SATURATED ZONE =          -3648.97

 OVERALL BUDGET ERROR =          -2938.20           BUDGET ERROR =            -10.90


  PERCENT DISCREPANCY =             -0.02    PERCENT DISCREPANCY =             -0.01



1
 SUMMARY VOLUMETRIC BUDGET FOR GSFLOW 
 DATE: 06 23 1991              CUMULATIVE TIME STEP:      23
 MODFLOW STRESS PERIOD     10     CURRENT TIME STEP:     266     ITERATIONS:       5

 -----------------------------------------------------------------------------------

   CUMULATIVE VOLUMES               L**3   RATES FOR THIS TIME STEP           L**3/T
   ------------------                      ------------------------

                                     IN                                         IN
                                     --                                         --
        PRECIPITATION =        1.4671D+07          PRECIPITATION =                  
           STREAMFLOW =                               STREAMFLOW =                  
     GW BOUNDARY FLOW =            169.93       GW BOUNDARY FLOW =              1.48


                                    OUT                                        OUT
                                    ---                                        ---
   EVAPOTRANSPIRATION =        8511779.14     EVAPOTRANSPIRATION =          39004.37
           STREAMFLOW =        6328827.88             STREAMFLOW =          15407.27
     GW BOUNDARY FLOW =           9412.20       GW BOUNDARY FLOW =             33.22

   INFLOWS - OUTFLOWS =        -178874.49     INFLOWS - OUTFLOWS =         -54443.38
             --------                                   --------

 TOTAL STORAGE CHANGE =        -175844.92         STORAGE CHANGE =         -54422.24
       --------------                             --------------
         LAND SURFACE =             10.53           LAND SURFACE =             -3.38
            SOIL ZONE =        2336900.45              SOIL ZONE =         -35974.44
     UNSATURATED ZONE =       -3017248.22       UNSATURATED ZONE =         -13214.58
       SATURATED ZONE =         504492.33         SATURATED ZONE =          -5229.85

 OVERALL BUDGET ERROR =          -3029.58           BUDGET ERROR =            -21.14


  PERCENT DISCREPANCY =             -0.02    PERCENT DISCREPANCY =             -0.04



1
 SUMMARY VOLUMETRIC BUDGET FOR GSFLOW 
 DATE: 06 30 1991              CUMULATIVE TIME STEP:      30
 MODFLOW STRESS PERIOD     10     CURRENT TIME STEP:     273     ITERATIONS:       5

 -----------------------------------------------------------------------------------

   CUMULATIVE VOLUMES               L**3   RATES FOR THIS TIME STEP           L**3/T
   ------------------                      ------------------------

                                     IN                                         IN
[...]
                                    ---                                        ---
   EVAPOTRANSPIRATION =        1.4352D+08     EVAPOTRANSPIRATION =          14730.82
           STREAMFLOW =        1.2057D+08             STREAMFLOW =            429.14
     GW BOUNDARY FLOW =          95517.36       GW BOUNDARY FLOW =             21.70

   INFLOWS - OUTFLOWS =       -2.4172D+07     INFLOWS - OUTFLOWS =         -15175.53
             --------                                   --------

 TOTAL STORAGE CHANGE =       -2.4157D+07         STORAGE CHANGE =         -15175.97
       --------------                             --------------
         LAND SURFACE =                             LAND SURFACE =                  
            SOIL ZONE =        -253799.56              SOIL ZONE =          -1237.22
     UNSATURATED ZONE =         417673.64       UNSATURATED ZONE =          -1575.15
       SATURATED ZONE =       -2.4321D+07         SATURATED ZONE =         -12363.59

 OVERALL BUDGET ERROR =         -14971.86           BUDGET ERROR =              0.44


  PERCENT DISCREPANCY =             -0.01    PERCENT DISCREPANCY =              0.00



1
 SUMMARY VOLUMETRIC BUDGET FOR GSFLOW 
 DATE: 09 03 2000              CUMULATIVE TIME STEP:       3
 MODFLOW STRESS PERIOD    121     CURRENT TIME STEP:    3626     ITERATIONS:       8

 -----------------------------------------------------------------------------------

   CUMULATIVE VOLUMES               L**3   RATES FOR THIS TIME STEP           L**3/T
   ------------------                      ------------------------

                                     IN                                         IN
                                     --                                         --
        PRECIPITATION =        2.4013D+08          PRECIPITATION =                  
           STREAMFLOW =                               STREAMFLOW =                  
     GW BOUNDARY FLOW =          14852.82       GW BOUNDARY FLOW =              6.14


                                    OUT                                        OUT
                                    ---                                        ---
   EVAPOTRANSPIRATION =        1.4360D+08     EVAPOTRANSPIRATION =          27627.04
           STREAMFLOW =        1.2060D+08             STREAMFLOW =           6541.97
     GW BOUNDARY FLOW =          95671.54       GW BOUNDARY FLOW =             22.28

   INFLOWS - OUTFLOWS =       -2.4152D+07     INFLOWS - OUTFLOWS =         -34185.15
             --------                                   --------

 TOTAL STORAGE CHANGE =       -2.4137D+07         STORAGE CHANGE =         -34185.68
       --------------                             --------------
         LAND SURFACE =          31152.71           LAND SURFACE =         -27523.93
            SOIL ZONE =        -193119.84              SOIL ZONE =            -58.14
     UNSATURATED ZONE =         405972.37       UNSATURATED ZONE =          -1679.59
       SATURATED ZONE =       -2.4381D+07         SATURATED ZONE =          -4924.02

 OVERALL BUDGET ERROR =         -14975.23           BUDGET ERROR =              0.53


  PERCENT DISCREPANCY =             -0.01    PERCENT DISCREPANCY =              0.00



1
 SUMMARY VOLUMETRIC BUDGET FOR GSFLOW 
 DATE: 09 10 2000              CUMULATIVE TIME STEP:      10
 MODFLOW STRESS PERIOD    121     CURRENT TIME STEP:    3633     ITERATIONS:      13

 -----------------------------------------------------------------------------------

   CUMULATIVE VOLUMES               L**3   RATES FOR THIS TIME STEP           L**3/T
   ------------------                      ------------------------

                                     IN                                         IN
                                     --                                         --
        PRECIPITATION =        2.4013D+08          PRECIPITATION =                  
           STREAMFLOW =                               STREAMFLOW =                  
     GW BOUNDARY FLOW =          14895.81       GW BOUNDARY FLOW =              6.14


                                    OUT                                        OUT
                                    ---                                        ---
   EVAPOTRANSPIRATION =        1.4369D+08     EVAPOTRANSPIRATION =           8665.44
           STREAMFLOW =        1.2063D+08             STREAMFLOW =           4368.77
     GW BOUNDARY FLOW =          95826.09       GW BOUNDARY FLOW =             22.05

   INFLOWS - OUTFLOWS =       -2.4272D+07     INFLOWS - OUTFLOWS =         -13050.11
             --------                                   --------

 TOTAL STORAGE CHANGE =       -2.4257D+07         STORAGE CHANGE =         -13049.42
       --------------                             --------------
         LAND SURFACE =                             LAND SURFACE =                  
            SOIL ZONE =        -209956.24              SOIL ZONE =          -2514.02
     UNSATURATED ZONE =         394449.57       UNSATURATED ZONE =          -1647.02
       SATURATED ZONE =       -2.4441D+07         SATURATED ZONE =          -8888.37

 OVERALL BUDGET ERROR =         -14984.87           BUDGET ERROR =             -0.69


  PERCENT DISCREPANCY =             -0.01    PERCENT DISCREPANCY =             -0.01



1
 SUMMARY VOLUMETRIC BUDGET FOR GSFLOW 
 DATE: 09 17 2000              CUMULATIVE TIME STEP:      17
 MODFLOW STRESS PERIOD    121     CURRENT TIME STEP:    3640     ITERATIONS:       7

 -----------------------------------------------------------------------------------

   CUMULATIVE VOLUMES               L**3   RATES FOR THIS TIME STEP           L**3/T
   ------------------                      ------------------------

                                     IN                                         IN
                                     --                                         --
        PRECIPITATION =        2.4013D+08          PRECIPITATION =                  
           STREAMFLOW =                               STREAMFLOW =                  
     GW BOUNDARY FLOW =          14938.85       GW BOUNDARY FLOW =              6.15


                                    OUT                                        OUT
                                    ---                                        ---
   EVAPOTRANSPIRATION =        1.4376D+08     EVAPOTRANSPIRATION =           9957.03
           STREAMFLOW =        1.2066D+08             STREAMFLOW =           4158.52
     GW BOUNDARY FLOW =          95980.02       GW BOUNDARY FLOW =             22.00

   INFLOWS - OUTFLOWS =       -2.4374D+07     INFLOWS - OUTFLOWS =         -14131.40
             --------                                   --------

 TOTAL STORAGE CHANGE =       -2.4359D+07         STORAGE CHANGE =         -14130.04
       --------------                             --------------
         LAND SURFACE =                             LAND SURFACE =                  
            SOIL ZONE =        -230069.55              SOIL ZONE =          -2521.11
     UNSATURATED ZONE =         383015.30       UNSATURATED ZONE =          -1610.71
       SATURATED ZONE =       -2.4512D+07         SATURATED ZONE =          -9998.22

 OVERALL BUDGET ERROR =         -14987.26           BUDGET ERROR =             -1.36


  PERCENT DISCREPANCY =             -0.01    PERCENT DISCREPANCY =             -0.01



1
 SUMMARY VOLUMETRIC BUDGET FOR GSFLOW 
 DATE: 09 24 2000              CUMULATIVE TIME STEP:      24
 MODFLOW STRESS PERIOD    121     CURRENT TIME STEP:    3647     ITERATIONS:       5

 -----------------------------------------------------------------------------------

   CUMULATIVE VOLUMES               L**3   RATES FOR THIS TIME STEP           L**3/T
   ------------------                      ------------------------

                                     IN                                         IN
                                     --                                         --
        PRECIPITATION =        2.4013D+08          PRECIPITATION =                  
           STREAMFLOW =                               STREAMFLOW =                  
     GW BOUNDARY FLOW =          14981.94       GW BOUNDARY FLOW =              6.16


                                    OUT                                        OUT
                                    ---                                        ---
   EVAPOTRANSPIRATION =        1.4382D+08     EVAPOTRANSPIRATION =           5146.66
           STREAMFLOW =        1.2069D+08             STREAMFLOW =           5327.68
     GW BOUNDARY FLOW =          96134.36       GW BOUNDARY FLOW =             22.13

   INFLOWS - OUTFLOWS =       -2.4462D+07     INFLOWS - OUTFLOWS =         -10490.32
             --------                                   --------

 TOTAL STORAGE CHANGE =       -2.4447D+07         STORAGE CHANGE =         -10486.12
       --------------                             --------------
         LAND SURFACE =                             LAND SURFACE =                  
            SOIL ZONE =        -242984.42              SOIL ZONE =          -1118.19
     UNSATURATED ZONE =         371946.32       UNSATURATED ZONE =          -1523.37
       SATURATED ZONE =       -2.4576D+07         SATURATED ZONE =          -7844.56

 OVERALL BUDGET ERROR =         -15009.13           BUDGET ERROR =             -4.20


  PERCENT DISCREPANCY =             -0.01    PERCENT DISCREPANCY =             -0.04



1
 SUMMARY VOLUMETRIC BUDGET FOR GSFLOW 
 DATE: 10 01 2000              CUMULATIVE TIME STEP:       1
 MODFLOW STRESS PERIOD    122     CURRENT TIME STEP:    3654     ITERATIONS:       7

 -----------------------------------------------------------------------------------

   CUMULATIVE VOLUMES               L**3   RATES FOR THIS TIME STEP           L**3/T
   ------------------                      ------------------------

                                     IN                                         IN
                                     --                                         --
        PRECIPITATION =        2.4013D+08          PRECIPITATION =                  
           STREAMFLOW =                               STREAMFLOW =                  
     GW BOUNDARY FLOW =          15025.07       GW BOUNDARY FLOW =              6.16


                                    OUT                                        OUT
                                    ---                                        ---
   EVAPOTRANSPIRATION =        1.4388D+08     EVAPOTRANSPIRATION =           8324.92
           STREAMFLOW =        1.2072D+08             STREAMFLOW =           4416.40
     GW BOUNDARY FLOW =          96288.60       GW BOUNDARY FLOW =             22.03

   INFLOWS - OUTFLOWS =       -2.4552D+07     INFLOWS - OUTFLOWS =         -12757.18
             --------                                   --------

 TOTAL STORAGE CHANGE =       -2.4537D+07         STORAGE CHANGE =         -12757.49
       --------------                             --------------
         LAND SURFACE =                             LAND SURFACE =                  
            SOIL ZONE =        -255410.47              SOIL ZONE =          -1635.77
     UNSATURATED ZONE =         360965.80       UNSATURATED ZONE =          -1584.63
       SATURATED ZONE =       -2.4643D+07         SATURATED ZONE =          -9537.08

 OVERALL BUDGET ERROR =         -15012.49           BUDGET ERROR =              0.31


  PERCENT DISCREPANCY =             -0.01    PERCENT DISCREPANCY =              0.00



1
 SUMMARY VOLUMETRIC BUDGET FOR GSFLOW 
 DATE: 10 08 2000              CUMULATIVE TIME STEP:       8
 MODFLOW STRESS PERIOD    122     CURRENT TIME STEP:    3661     ITERATIONS:       3

 -----------------------------------------------------------------------------------

   CUMULATIVE VOLUMES               L**3   RATES FOR THIS TIME STEP           L**3/T
   ------------------                      ------------------------

                                     IN                                         IN
                                     --                                         --
        PRECIPITATION =        2.4013D+08          PRECIPITATION =                  
           STREAMFLOW =                               STREAMFLOW =                  
     GW BOUNDARY FLOW =          15068.25       GW BOUNDARY FLOW =              6.17


                                    OUT                                        OUT
                                    ---                                        ---
   EVAPOTRANSPIRATION =        1.4393D+08     EVAPOTRANSPIRATION =           6971.60
           STREAMFLOW =        1.2076D+08             STREAMFLOW =           4815.93
     GW BOUNDARY FLOW =          96443.02       GW BOUNDARY FLOW =             22.07

   INFLOWS - OUTFLOWS =       -2.4636D+07     INFLOWS - OUTFLOWS =         -11803.42
             --------                                   --------

 TOTAL STORAGE CHANGE =       -2.4621D+07         STORAGE CHANGE =         -11739.49
       --------------                             --------------
         LAND SURFACE =                             LAND SURFACE =                  
            SOIL ZONE =        -264734.37              SOIL ZONE =          -1219.47
     UNSATURATED ZONE =         350123.52       UNSATURATED ZONE =          -1553.05
       SATURATED ZONE =       -2.4707D+07         SATURATED ZONE =          -8966.97

 OVERALL BUDGET ERROR =         -15077.86           BUDGET ERROR =            -63.93


  PERCENT DISCREPANCY =             -0.01    PERCENT DISCREPANCY =             -0.54



1
 SUMMARY VOLUMETRIC BUDGET FOR GSFLOW 
 DATE: 10 15 2000              CUMULATIVE TIME STEP:      15
 MODFLOW STRESS PERIOD    122     CURRENT TIME STEP:    3668     ITERATIONS:       7

 -----------------------------------------------------------------------------------

   CUMULATIVE VOLUMES               L**3   RATES FOR THIS TIME STEP           L**3/T
   ------------------                      ------------------------

                                     IN                                         IN
                                     --                                         --
        PRECIPITATION =        2.4034D+08          PRECIPITATION =                  
           STREAMFLOW =                               STREAMFLOW =                  
     GW BOUNDARY FLOW =          15111.47       GW BOUNDARY FLOW =              6.18


                                    OUT                                        OUT
                                    ---                                        ---
   EVAPOTRANSPIRATION =        1.4400D+08     EVAPOTRANSPIRATION =           8054.22
           STREAMFLOW =        1.2080D+08             STREAMFLOW =           6103.29
     GW BOUNDARY FLOW =          96598.91       GW BOUNDARY FLOW =             22.23

   INFLOWS - OUTFLOWS =       -2.4547D+07     INFLOWS - OUTFLOWS =         -14173.56
             --------                                   --------

 TOTAL STORAGE CHANGE =       -2.4532D+07         STORAGE CHANGE =         -14172.99
       --------------                             --------------
         LAND SURFACE =            289.77           LAND SURFACE =          -3209.51
            SOIL ZONE =        -122139.58              SOIL ZONE =          -2065.59
     UNSATURATED ZONE =         339225.56       UNSATURATED ZONE =          -1605.82
       SATURATED ZONE =       -2.4749D+07         SATURATED ZONE =          -7292.07

 OVERALL BUDGET ERROR =         -15104.88           BUDGET ERROR =             -0.57


  PERCENT DISCREPANCY =             -0.01    PERCENT DISCREPANCY =             -0.00



1
 SUMMARY VOLUMETRIC BUDGET FOR GSFLOW 
 DATE: 10 22 2000              CUMULATIVE TIME STEP:      22
 MODFLOW STRESS PERIOD    122     CURRENT TIME STEP:    3675     ITERATIONS:       5

 -----------------------------------------------------------------------------------

   CUMULATIVE VOLUMES               L**3   RATES FOR THIS TIME STEP           L**3/T
   ------------------                      ------------------------

                                     IN                                         IN
                                     --                                         --
        PRECIPITATION =        2.4039D+08          PRECIPITATION =                  
           STREAMFLOW =                               STREAMFLOW =                  
     GW BOUNDARY FLOW =          15154.72       GW BOUNDARY FLOW =              6.18


                                    OUT                                        OUT
                                    ---                                        ---
   EVAPOTRANSPIRATION =        1.4405D+08     EVAPOTRANSPIRATION =           8033.28
           STREAMFLOW =        1.2085D+08             STREAMFLOW =           7135.90
     GW BOUNDARY FLOW =          96754.70       GW BOUNDARY FLOW =             22.36

   INFLOWS - OUTFLOWS =       -2.4589D+07     INFLOWS - OUTFLOWS =         -15185.36
             --------                                   --------

 TOTAL STORAGE CHANGE =       -2.4573D+07         STORAGE CHANGE =         -15180.78
       --------------                             --------------
         LAND SURFACE =          27624.54           LAND SURFACE =          -7992.89
            SOIL ZONE =        -130288.06              SOIL ZONE =             10.94
     UNSATURATED ZONE =         328187.49       UNSATURATED ZONE =          -1520.72
       SATURATED ZONE =       -2.4799D+07         SATURATED ZONE =          -5678.11

 OVERALL BUDGET ERROR =         -15132.15           BUDGET ERROR =             -4.58


  PERCENT DISCREPANCY =             -0.01    PERCENT DISCREPANCY =             -0.03



1
 SUMMARY VOLUMETRIC BUDGET FOR GSFLOW 
 DATE: 10 29 2000              CUMULATIVE TIME STEP:      29
 MODFLOW STRESS PERIOD    122     CURRENT TIME STEP:    3682     ITERATIONS:      23

 -----------------------------------------------------------------------------------

   CUMULATIVE VOLUMES               L**3   RATES FOR THIS TIME STEP           L**3/T
   ------------------                      ------------------------

                                     IN                                         IN
                                     --                                         --
        PRECIPITATION =        2.4111D+08          PRECIPITATION =          24578.20
           STREAMFLOW =                               STREAMFLOW =                  
     GW BOUNDARY FLOW =          15198.00       GW BOUNDARY FLOW =              6.18


                                    OUT                                        OUT
                                    ---                                        ---
   EVAPOTRANSPIRATION =        1.4409D+08     EVAPOTRANSPIRATION =           1118.77
           STREAMFLOW =        1.2089D+08             STREAMFLOW =           7044.08
     GW BOUNDARY FLOW =          96911.13       GW BOUNDARY FLOW =             22.38

   INFLOWS - OUTFLOWS =       -2.3950D+07     INFLOWS - OUTFLOWS =          16399.16
             --------                                   --------

 TOTAL STORAGE CHANGE =       -2.3935D+07         STORAGE CHANGE =          16399.09
       --------------                             --------------
         LAND SURFACE =         587219.82           LAND SURFACE =          11658.99
            SOIL ZONE =           2254.91              SOIL ZONE =          12322.62
     UNSATURATED ZONE =         317295.72       UNSATURATED ZONE =          -1555.77
       SATURATED ZONE =       -2.4842D+07         SATURATED ZONE =          -6026.75

 OVERALL BUDGET ERROR =         -15150.42           BUDGET ERROR =              0.07


  PERCENT DISCREPANCY =             -0.01    PERCENT DISCREPANCY =              0.00



