1
 SUMMARY VOLUMETRIC BUDGET FOR GSFLOW 
 DATE: 10 07 1990              CUMULATIVE TIME STEP:       7
 MODFLOW STRESS PERIOD      2     CURRENT TIME STEP:       7     ITERATIONS:       7

 -----------------------------------------------------------------------------------

   CUMULATIVE VOLUMES               L**3   RATES FOR THIS TIME STEP           L**3/T
   ------------------                      ------------------------

                                     IN                                         IN
                                     --                                         --
        PRECIPITATION =                            PRECIPITATION =                  
           STREAMFLOW =                               STREAMFLOW =                  
     GW BOUNDARY FLOW =                         GW BOUNDARY FLOW =                  


                                    OUT                                        OUT
                                    ---                                        ---
   EVAPOTRANSPIRATION =         384997.90     EVAPOTRANSPIRATION =          11800.14
           STREAMFLOW =          46311.09             STREAMFLOW =           8184.28
     GW BOUNDARY FLOW =            252.80       GW BOUNDARY FLOW =             36.30

   INFLOWS - OUTFLOWS =        -431561.78     INFLOWS - OUTFLOWS =         -20020.73
             --------                                   --------

 TOTAL STORAGE CHANGE =        -430092.43         STORAGE CHANGE =         -19994.04
       --------------                             --------------
         LAND SURFACE =                             LAND SURFACE =                  
            SOIL ZONE =         -33647.94              SOIL ZONE =           -949.06
     UNSATURATED ZONE =        -502271.26       UNSATURATED ZONE =         -33315.93
       SATURATED ZONE =         105826.77         SATURATED ZONE =          14270.95

 OVERALL BUDGET ERROR =          -1469.35           BUDGET ERROR =            -26.68


  PERCENT DISCREPANCY =             -0.34    PERCENT DISCREPANCY =             -0.13



1
 SUMMARY VOLUMETRIC BUDGET FOR GSFLOW 
 DATE: 10 14 1990              CUMULATIVE TIME STEP:      14
 MODFLOW STRESS PERIOD      2     CURRENT TIME STEP:      14     ITERATIONS:       6

 -----------------------------------------------------------------------------------

   CUMULATIVE VOLUMES               L**3   RATES FOR THIS TIME STEP           L**3/T
   ------------------                      ------------------------

                                     IN                                         IN
                                     --                                         --
        PRECIPITATION =                            PRECIPITATION =                  
           STREAMFLOW =                               STREAMFLOW =                  
     GW BOUNDARY FLOW =                         GW BOUNDARY FLOW =                  


                                    OUT                                        OUT
                                    ---                                        ---
   EVAPOTRANSPIRATION =         665193.76     EVAPOTRANSPIRATION =          42313.10
           STREAMFLOW =         101471.34             STREAMFLOW =           7477.71
     GW BOUNDARY FLOW =            506.65       GW BOUNDARY FLOW =             36.24

   INFLOWS - OUTFLOWS =        -767171.75     INFLOWS - OUTFLOWS =         -49827.05
             --------                                   --------

 TOTAL STORAGE CHANGE =        -765417.42         STORAGE CHANGE =         -49806.36
       --------------                             --------------
         LAND SURFACE =                             LAND SURFACE =                  
            SOIL ZONE =         -58651.68              SOIL ZONE =          -4416.62
     UNSATURATED ZONE =        -877077.56       UNSATURATED ZONE =         -52127.47
       SATURATED ZONE =         170311.81         SATURATED ZONE =           6737.73

 OVERALL BUDGET ERROR =          -1754.33           BUDGET ERROR =            -20.69


  PERCENT DISCREPANCY =             -0.23    PERCENT DISCREPANCY =             -0.04



1
 SUMMARY VOLUMETRIC BUDGET FOR GSFLOW 
 DATE: 10 21 1990              CUMULATIVE TIME STEP:      21
 MODFLOW STRESS PERIOD      2     CURRENT TIME STEP:      21     ITERATIONS:       6

 -----------------------------------------------------------------------------------

   CUMULATIVE VOLUMES               L**3   RATES FOR THIS TIME STEP           L**3/T
   ------------------                      ------------------------

                                     IN                                         IN
                                     --                                         --
        PRECIPITATION =         188432.87          PRECIPITATION =                  
           STREAMFLOW =                               STREAMFLOW =                  
     GW BOUNDARY FLOW =                         GW BOUNDARY FLOW =                  


                                    OUT                                        OUT
                                    ---                                        ---
   EVAPOTRANSPIRATION =         815444.65     EVAPOTRANSPIRATION =          41709.13
           STREAMFLOW =         164527.69             STREAMFLOW =          10159.31
     GW BOUNDARY FLOW =            760.84       GW BOUNDARY FLOW =             36.37

   INFLOWS - OUTFLOWS =        -792300.32     INFLOWS - OUTFLOWS =         -51904.82
             --------                                   --------

 TOTAL STORAGE CHANGE =        -790494.11         STORAGE CHANGE =         -51909.53
       --------------                             --------------
         LAND SURFACE =          18885.57           LAND SURFACE =         -43558.49
            SOIL ZONE =          48188.83              SOIL ZONE =           2053.01
     UNSATURATED ZONE =       -1090962.03       UNSATURATED ZONE =         -21361.65
       SATURATED ZONE =         233393.51         SATURATED ZONE =          10957.60

 OVERALL BUDGET ERROR =          -1806.21           BUDGET ERROR =              4.71


  PERCENT DISCREPANCY =             -0.18    PERCENT DISCREPANCY =              0.01



1
 SUMMARY VOLUMETRIC BUDGET FOR GSFLOW 
 DATE: 10 28 1990              CUMULATIVE TIME STEP:      28
 MODFLOW STRESS PERIOD      2     CURRENT TIME STEP:      28     ITERATIONS:       6

 -----------------------------------------------------------------------------------

   CUMULATIVE VOLUMES               L**3   RATES FOR THIS TIME STEP           L**3/T
   ------------------                      ------------------------

                                     IN                                         IN
                                     --                                         --
        PRECIPITATION =         188432.87          PRECIPITATION =                  
           STREAMFLOW =                               STREAMFLOW =                  
     GW BOUNDARY FLOW =                         GW BOUNDARY FLOW =                  


                                    OUT                                        OUT
                                    ---                                        ---
   EVAPOTRANSPIRATION =         943786.25     EVAPOTRANSPIRATION =          11825.75
           STREAMFLOW =         226198.14             STREAMFLOW =           8957.64
     GW BOUNDARY FLOW =           1014.04       GW BOUNDARY FLOW =             36.13

   INFLOWS - OUTFLOWS =        -982565.56     INFLOWS - OUTFLOWS =         -20819.51
             --------                                   --------

 TOTAL STORAGE CHANGE =        -980747.63         STORAGE CHANGE =         -20821.49
       --------------                             --------------
         LAND SURFACE =                             LAND SURFACE =                  
            SOIL ZONE =          19150.20              SOIL ZONE =          -3436.32
     UNSATURATED ZONE =       -1274636.50       UNSATURATED ZONE =         -23283.91
       SATURATED ZONE =         274738.67         SATURATED ZONE =           5898.74

 OVERALL BUDGET ERROR =          -1817.94           BUDGET ERROR =              1.98


  PERCENT DISCREPANCY =             -0.16    PERCENT DISCREPANCY =              0.01



1
 SUMMARY VOLUMETRIC BUDGET FOR GSFLOW 
 DATE: 11 04 1990              CUMULATIVE TIME STEP:       4
 MODFLOW STRESS PERIOD      3     CURRENT TIME STEP:      35     ITERATIONS:       6

 -----------------------------------------------------------------------------------

   CUMULATIVE VOLUMES               L**3   RATES FOR THIS TIME STEP           L**3/T
   ------------------                      ------------------------

                                     IN                                         IN
                                     --                                         --
        PRECIPITATION =         703113.06          PRECIPITATION =                  
           STREAMFLOW =                               STREAMFLOW =                  
     GW BOUNDARY FLOW =                         GW BOUNDARY FLOW =                  


                                    OUT                                        OUT
                                    ---                                        ---
   EVAPOTRANSPIRATION =        1004361.12     EVAPOTRANSPIRATION =          26280.47
           STREAMFLOW =         296575.66             STREAMFLOW =          10532.42
     GW BOUNDARY FLOW =           1267.08       GW BOUNDARY FLOW =             36.14

   INFLOWS - OUTFLOWS =        -599090.80     INFLOWS - OUTFLOWS =         -36849.02
             --------                                   --------

 TOTAL STORAGE CHANGE =        -597294.33         STORAGE CHANGE =         -36853.70
       --------------                             --------------
         LAND SURFACE =         132159.65           LAND SURFACE =        -160480.33
            SOIL ZONE =         356557.31              SOIL ZONE =         134353.49
     UNSATURATED ZONE =       -1420410.75       UNSATURATED ZONE =         -20102.65
       SATURATED ZONE =         334399.47         SATURATED ZONE =           9375.79

 OVERALL BUDGET ERROR =          -1796.47           BUDGET ERROR =              4.68


  PERCENT DISCREPANCY =             -0.14    PERCENT DISCREPANCY =              0.01



1
 SUMMARY VOLUMETRIC BUDGET FOR GSFLOW 
 DATE: 11 11 1990              CUMULATIVE TIME STEP:      11
 MODFLOW STRESS PERIOD      3     CURRENT TIME STEP:      42     ITERATIONS:       6

 -----------------------------------------------------------------------------------

   CUMULATIVE VOLUMES               L**3   RATES FOR THIS TIME STEP           L**3/T
   ------------------                      ------------------------

                                     IN                                         IN
                                     --                                         --
        PRECIPITATION =         703113.06          PRECIPITATION =                  
           STREAMFLOW =                               STREAMFLOW =                  
     GW BOUNDARY FLOW =                         GW BOUNDARY FLOW =                  


                                    OUT                                        OUT
                                    ---                                        ---
   EVAPOTRANSPIRATION =        1081513.94     EVAPOTRANSPIRATION =          12129.05
           STREAMFLOW =         367325.53             STREAMFLOW =           9629.51
     GW BOUNDARY FLOW =           1519.18       GW BOUNDARY FLOW =             35.93

   INFLOWS - OUTFLOWS =        -747245.59     INFLOWS - OUTFLOWS =         -21794.48
             --------                                   --------

 TOTAL STORAGE CHANGE =        -745470.09         STORAGE CHANGE =         -21797.17
       --------------                             --------------
         LAND SURFACE =            595.09           LAND SURFACE =          -1416.54
            SOIL ZONE =         429482.37              SOIL ZONE =          -5401.63
     UNSATURATED ZONE =       -1559899.31       UNSATURATED ZONE =         -19902.53
       SATURATED ZONE =         384351.76         SATURATED ZONE =           4923.53

 OVERALL BUDGET ERROR =          -1775.50           BUDGET ERROR =              2.69


  PERCENT DISCREPANCY =             -0.12    PERCENT DISCREPANCY =              0.01



1
 SUMMARY VOLUMETRIC BUDGET FOR GSFLOW 
 DATE: 11 18 1990              CUMULATIVE TIME STEP:      18
 MODFLOW STRESS PERIOD      3     CURRENT TIME STEP:      49     ITERATIONS:       6

 -----------------------------------------------------------------------------------

   CUMULATIVE VOLUMES               L**3   RATES FOR THIS TIME STEP           L**3/T
   ------------------                      ------------------------

                                     IN                                         IN
                                     --                                         --
        PRECIPITATION =         747883.35          PRECIPITATION =                  
           STREAMFLOW =                               STREAMFLOW =                  
     GW BOUNDARY FLOW =                         GW BOUNDARY FLOW =                  


                                    OUT                                        OUT
                                    ---                                        ---
   EVAPOTRANSPIRATION =        1153918.39     EVAPOTRANSPIRATION =           5054.35
           STREAMFLOW =         438900.33             STREAMFLOW =          10652.83
     GW BOUNDARY FLOW =           1770.49       GW BOUNDARY FLOW =             35.88

   INFLOWS - OUTFLOWS =        -846705.86     INFLOWS - OUTFLOWS =         -15743.07
             --------                                   --------

 TOTAL STORAGE CHANGE =        -844946.10         STORAGE CHANGE =         -15746.20
       --------------                             --------------
         LAND SURFACE =           7868.08           LAND SURFACE =          -3691.47
            SOIL ZONE =         411951.55              SOIL ZONE =           -677.81
     UNSATURATED ZONE =       -1693395.30       UNSATURATED ZONE =         -18649.76
       SATURATED ZONE =         428629.58         SATURATED ZONE =           7272.84

 OVERALL BUDGET ERROR =          -1759.76           BUDGET ERROR =              3.14


  PERCENT DISCREPANCY =             -0.11    PERCENT DISCREPANCY =              0.02



1
 SUMMARY VOLUMETRIC BUDGET FOR GSFLOW 
 DATE: 11 25 1990              CUMULATIVE TIME STEP:      25
 MODFLOW STRESS PERIOD      3     CURRENT TIME STEP:      56     ITERATIONS:       6

 -----------------------------------------------------------------------------------

   CUMULATIVE VOLUMES               L**3   RATES FOR THIS TIME STEP           L**3/T
   ------------------                      ------------------------

                                     IN                                         IN
                                     --                                         --
        PRECIPITATION =        1009043.38          PRECIPITATION =         186542.88
           STREAMFLOW =                               STREAMFLOW =                  
     GW BOUNDARY FLOW =                         GW BOUNDARY FLOW =                  


                                    OUT                                        OUT
                                    ---                                        ---
   EVAPOTRANSPIRATION =        1214346.66     EVAPOTRANSPIRATION =           3757.66
           STREAMFLOW =         514654.00             STREAMFLOW =          10733.77
     GW BOUNDARY FLOW =           2021.43       GW BOUNDARY FLOW =             35.79

   INFLOWS - OUTFLOWS =        -721978.71     INFLOWS - OUTFLOWS =         172015.65
             --------                                   --------

 TOTAL STORAGE CHANGE =        -720237.84         STORAGE CHANGE =         172013.42
       --------------                             --------------
         LAND SURFACE =          86180.68           LAND SURFACE =          69567.13
            SOIL ZONE =         536738.93              SOIL ZONE =         114159.33
     UNSATURATED ZONE =       -1821360.15       UNSATURATED ZONE =         -17971.80
       SATURATED ZONE =         478202.71         SATURATED ZONE =           6258.75

 OVERALL BUDGET ERROR =          -1740.87           BUDGET ERROR =              2.24


  PERCENT DISCREPANCY =             -0.10    PERCENT DISCREPANCY =              0.00



1
 SUMMARY VOLUMETRIC BUDGET FOR GSFLOW 
 DATE: 12 02 1990              CUMULATIVE TIME STEP:       2
 MODFLOW STRESS PERIOD      4     CURRENT TIME STEP:      63     ITERATIONS:       6

 -----------------------------------------------------------------------------------

   CUMULATIVE VOLUMES               L**3   RATES FOR THIS TIME STEP           L**3/T
   ------------------                      ------------------------

                                     IN                                         IN
                                     --                                         --
        PRECIPITATION =        1449284.55          PRECIPITATION =                  
           STREAMFLOW =                               STREAMFLOW =                  
     GW BOUNDARY FLOW =                         GW BOUNDARY FLOW =                  


                                    OUT                                        OUT
                                    ---                                        ---
   EVAPOTRANSPIRATION =        1220842.32     EVAPOTRANSPIRATION =            234.69
           STREAMFLOW =         591584.53             STREAMFLOW =          11040.13
     GW BOUNDARY FLOW =           2271.91       GW BOUNDARY FLOW =             35.77

   INFLOWS - OUTFLOWS =        -365414.22     INFLOWS - OUTFLOWS =         -11310.58
             --------                                   --------

 TOTAL STORAGE CHANGE =        -363688.72         STORAGE CHANGE =         -11312.52
       --------------                             --------------
         LAND SURFACE =         486845.62           LAND SURFACE =           -339.04
            SOIL ZONE =         570719.26              SOIL ZONE =            234.57
     UNSATURATED ZONE =       -1944547.10       UNSATURATED ZONE =         -17301.94
       SATURATED ZONE =         523293.50         SATURATED ZONE =           6093.89

 OVERALL BUDGET ERROR =          -1725.49           BUDGET ERROR =              1.94


  PERCENT DISCREPANCY =             -0.10    PERCENT DISCREPANCY =              0.02



1
 SUMMARY VOLUMETRIC BUDGET FOR GSFLOW 
 DATE: 12 09 1990              CUMULATIVE TIME STEP:       9
 MODFLOW STRESS PERIOD      4     CURRENT TIME STEP:      70     ITERATIONS:       6

 -----------------------------------------------------------------------------------

   CUMULATIVE VOLUMES               L**3   RATES FOR THIS TIME STEP           L**3/T
   ------------------                      ------------------------

                                     IN                                         IN
                                     --                                         --
        PRECIPITATION =        1449284.55          PRECIPITATION =                  
           STREAMFLOW =                               STREAMFLOW =                  
     GW BOUNDARY FLOW =                         GW BOUNDARY FLOW =                  


                                    OUT                                        OUT
                                    ---                                        ---
   EVAPOTRANSPIRATION =        1296678.27     EVAPOTRANSPIRATION =          13848.59
           STREAMFLOW =         668515.89             STREAMFLOW =          10750.84
     GW BOUNDARY FLOW =           2521.86       GW BOUNDARY FLOW =             35.64

   INFLOWS - OUTFLOWS =        -518431.46     INFLOWS - OUTFLOWS =         -24635.07
             --------                                   --------

 TOTAL STORAGE CHANGE =        -516716.28         STORAGE CHANGE =         -24635.85
       --------------                             --------------
         LAND SURFACE =          67215.41           LAND SURFACE =         -45889.70
            SOIL ZONE =         918830.81              SOIL ZONE =          33773.75
     UNSATURATED ZONE =       -2062708.28       UNSATURATED ZONE =         -16523.32
       SATURATED ZONE =         559945.77         SATURATED ZONE =           4003.42

 OVERALL BUDGET ERROR =          -1715.17           BUDGET ERROR =              0.78


  PERCENT DISCREPANCY =             -0.09    PERCENT DISCREPANCY =              0.00



1
 SUMMARY VOLUMETRIC BUDGET FOR GSFLOW 
 DATE: 12 16 1990              CUMULATIVE TIME STEP:      16
 MODFLOW STRESS PERIOD      4     CURRENT TIME STEP:      77     ITERATIONS:       5

 -----------------------------------------------------------------------------------

   CUMULATIVE VOLUMES               L**3   RATES FOR THIS TIME STEP           L**3/T
   ------------------                      ------------------------

                                     IN                                         IN
                                     --                                         --
        PRECIPITATION =        1804962.84          PRECIPITATION =                  
           STREAMFLOW =                               STREAMFLOW =                  
     GW BOUNDARY FLOW =                         GW BOUNDARY FLOW =                  


                                    OUT                                        OUT
                                    ---                                        ---
   EVAPOTRANSPIRATION =        1324955.14     EVAPOTRANSPIRATION =                  
           STREAMFLOW =         746985.05             STREAMFLOW =          11395.59
     GW BOUNDARY FLOW =           2771.24       GW BOUNDARY FLOW =             35.61

   INFLOWS - OUTFLOWS =        -269748.59     INFLOWS - OUTFLOWS =         -11431.19
             --------                                   --------

 TOTAL STORAGE CHANGE =        -268043.92         STORAGE CHANGE =         -11432.15
       --------------                             --------------
         LAND SURFACE =         252566.26           LAND SURFACE =                  
            SOIL ZONE =        1065041.45              SOIL ZONE =            148.67
     UNSATURATED ZONE =       -2176325.43       UNSATURATED ZONE =         -15968.64
       SATURATED ZONE =         590673.79         SATURATED ZONE =           4387.82

 OVERALL BUDGET ERROR =          -1704.66           BUDGET ERROR =              0.96


  PERCENT DISCREPANCY =             -0.08    PERCENT DISCREPANCY =              0.01



1
 SUMMARY VOLUMETRIC BUDGET FOR GSFLOW 
 DATE: 12 23 1990              CUMULATIVE TIME STEP:      23
 MODFLOW STRESS PERIOD      4     CURRENT TIME STEP:      84     ITERATIONS:       6

 -----------------------------------------------------------------------------------

   CUMULATIVE VOLUMES               L**3   RATES FOR THIS TIME STEP           L**3/T
   ------------------                      ------------------------

                                     IN                                         IN
                                     --                                         --
        PRECIPITATION =        2276236.55          PRECIPITATION =                  
           STREAMFLOW =                               STREAMFLOW =                  
     GW BOUNDARY FLOW =              0.08       GW BOUNDARY FLOW =              0.04


                                    OUT                                        OUT
                                    ---                                        ---
   EVAPOTRANSPIRATION =        1326012.74     EVAPOTRANSPIRATION =                  
           STREAMFLOW =         827180.42             STREAMFLOW =          11495.92
     GW BOUNDARY FLOW =           3020.26       GW BOUNDARY FLOW =             35.57

   INFLOWS - OUTFLOWS =         120023.21     INFLOWS - OUTFLOWS =         -11531.45
             --------                                   --------

 TOTAL STORAGE CHANGE =         121726.80         STORAGE CHANGE =         -11531.30
       --------------                             --------------
         LAND SURFACE =         722784.34           LAND SURFACE =                  
            SOIL ZONE =        1066127.16              SOIL ZONE =            158.79
     UNSATURATED ZONE =       -2285761.40       UNSATURATED ZONE =         -15387.84
       SATURATED ZONE =         618576.71         SATURATED ZONE =           3697.75

 OVERALL BUDGET ERROR =          -1703.59           BUDGET ERROR =             -0.15


  PERCENT DISCREPANCY =             -0.07    PERCENT DISCREPANCY =             -0.00



1
 SUMMARY VOLUMETRIC BUDGET FOR GSFLOW 
 DATE: 12 30 1990              CUMULATIVE TIME STEP:      30
 MODFLOW STRESS PERIOD      4     CURRENT TIME STEP:      91     ITERATIONS:       5

 -----------------------------------------------------------------------------------

   CUMULATIVE VOLUMES               L**3   RATES FOR THIS TIME STEP           L**3/T
   ------------------                      ------------------------

                                     IN                                         IN
                                     --                                         --
        PRECIPITATION =        2276236.55          PRECIPITATION =                  
           STREAMFLOW =                               STREAMFLOW =                  
     GW BOUNDARY FLOW =              0.77       GW BOUNDARY FLOW =              0.14


                                    OUT                                        OUT
                                    ---                                        ---
   EVAPOTRANSPIRATION =        1326580.25     EVAPOTRANSPIRATION =                  
           STREAMFLOW =         908049.76             STREAMFLOW =          11595.53
     GW BOUNDARY FLOW =           3269.36       GW BOUNDARY FLOW =             35.60

   INFLOWS - OUTFLOWS =          38337.96     INFLOWS - OUTFLOWS =         -11630.99
             --------                                   --------

 TOTAL STORAGE CHANGE =          40049.31         STORAGE CHANGE =         -11628.89
       --------------                             --------------
         LAND SURFACE =         722216.94           LAND SURFACE =                  
            SOIL ZONE =        1067283.06              SOIL ZONE =            170.39
     UNSATURATED ZONE =       -2391285.63       UNSATURATED ZONE =         -14845.60
       SATURATED ZONE =         641834.94         SATURATED ZONE =           3046.32

 OVERALL BUDGET ERROR =          -1711.36           BUDGET ERROR =             -2.09


  PERCENT DISCREPANCY =             -0.08    PERCENT DISCREPANCY =             -0.02



1
 SUMMARY VOLUMETRIC BUDGET FOR GSFLOW 
 DATE: 01 06 1991              CUMULATIVE TIME STEP:       6
 MODFLOW STRESS PERIOD      5     CURRENT TIME STEP:      98     ITERATIONS:       5

 -----------------------------------------------------------------------------------

   CUMULATIVE VOLUMES               L**3   RATES FOR THIS TIME STEP           L**3/T
   ------------------                      ------------------------

                                     IN                                         IN
                                     --                                         --
        PRECIPITATION =        2276236.55          PRECIPITATION =                  
           STREAMFLOW =                               STREAMFLOW =                  
     GW BOUNDARY FLOW =              2.09       GW BOUNDARY FLOW =              0.22


                                    OUT                                        OUT
                                    ---                                        ---
   EVAPOTRANSPIRATION =        1354512.76     EVAPOTRANSPIRATION =           3327.36
           STREAMFLOW =         989563.62             STREAMFLOW =          11676.92
     GW BOUNDARY FLOW =           3519.23       GW BOUNDARY FLOW =             35.75

   INFLOWS - OUTFLOWS =         -71356.97     INFLOWS - OUTFLOWS =         -15039.80
             --------                                   --------

 TOTAL STORAGE CHANGE =         -69623.21         STORAGE CHANGE =         -15035.69
       --------------                             --------------
         LAND SURFACE =         585426.33           LAND SURFACE =          -8558.21
            SOIL ZONE =        1177410.05              SOIL ZONE =           5413.57
     UNSATURATED ZONE =       -2492875.61       UNSATURATED ZONE =         -14283.10
       SATURATED ZONE =         660416.02         SATURATED ZONE =           2392.05

 OVERALL BUDGET ERROR =          -1733.76           BUDGET ERROR =             -4.11


  PERCENT DISCREPANCY =             -0.07    PERCENT DISCREPANCY =             -0.03



1
 SUMMARY VOLUMETRIC BUDGET FOR GSFLOW 
 DATE: 01 13 1991              CUMULATIVE TIME STEP:      13
 MODFLOW STRESS PERIOD      5     CURRENT TIME STEP:     105     ITERATIONS:       6

 -----------------------------------------------------------------------------------

   CUMULATIVE VOLUMES               L**3   RATES FOR THIS TIME STEP           L**3/T
   ------------------                      ------------------------

                                     IN                                         IN
                                     --                                         --
        PRECIPITATION =        2596386.94          PRECIPITATION =          10327.43
           STREAMFLOW =                               STREAMFLOW =                  
     GW BOUNDARY FLOW =              4.01       GW BOUNDARY FLOW =              0.31


                                    OUT                                        OUT
                                    ---                                        ---
   EVAPOTRANSPIRATION =        1422668.43     EVAPOTRANSPIRATION =          18918.28
           STREAMFLOW =        1071268.19             STREAMFLOW =          11589.51
     GW BOUNDARY FLOW =           3769.44       GW BOUNDARY FLOW =             35.73

   INFLOWS - OUTFLOWS =          98684.90     INFLOWS - OUTFLOWS =         -20215.77
             --------                                   --------

 TOTAL STORAGE CHANGE =         100449.06         STORAGE CHANGE =         -20212.88
       --------------                             --------------
         LAND SURFACE =         517131.90           LAND SURFACE =        -134708.01
            SOIL ZONE =        1500343.48              SOIL ZONE =         127098.67
     UNSATURATED ZONE =       -2590425.89       UNSATURATED ZONE =         -13732.15
       SATURATED ZONE =         673399.56         SATURATED ZONE =           1128.60

 OVERALL BUDGET ERROR =          -1764.16           BUDGET ERROR =             -2.89


  PERCENT DISCREPANCY =             -0.07    PERCENT DISCREPANCY =             -0.01



1
 SUMMARY VOLUMETRIC BUDGET FOR GSFLOW 
 DATE: 01 20 1991              CUMULATIVE TIME STEP:      20
 MODFLOW STRESS PERIOD      5     CURRENT TIME STEP:     112     ITERATIONS:       5

 -----------------------------------------------------------------------------------

   CUMULATIVE VOLUMES               L**3   RATES FOR THIS TIME STEP           L**3/T
   ------------------                      ------------------------

                                     IN                                         IN
                                     --                                         --
        PRECIPITATION =        2596386.94          PRECIPITATION =                  
           STREAMFLOW =                               STREAMFLOW =                  
     GW BOUNDARY FLOW =              6.54       GW BOUNDARY FLOW =              0.40


                                    OUT                                        OUT
                                    ---                                        ---
   EVAPOTRANSPIRATION =        1501240.82     EVAPOTRANSPIRATION =           2597.48
           STREAMFLOW =        1153526.09             STREAMFLOW =          11784.13
     GW BOUNDARY FLOW =           4019.67       GW BOUNDARY FLOW =             35.75

   INFLOWS - OUTFLOWS =         -62393.09     INFLOWS - OUTFLOWS =         -14416.96
             --------                                   --------

 TOTAL STORAGE CHANGE =         -60583.69         STORAGE CHANGE =         -14409.35
       --------------                             --------------
         LAND SURFACE =         342485.19           LAND SURFACE =           -464.47
            SOIL ZONE =        1598402.60              SOIL ZONE =          -1911.77
     UNSATURATED ZONE =       -2684106.77       UNSATURATED ZONE =         -13158.14
       SATURATED ZONE =         682635.28         SATURATED ZONE =           1125.03

 OVERALL BUDGET ERROR =          -1809.40           BUDGET ERROR =             -7.60


  PERCENT DISCREPANCY =             -0.07    PERCENT DISCREPANCY =             -0.05



1
 SUMMARY VOLUMETRIC BUDGET FOR GSFLOW 
 DATE: 01 27 1991              CUMULATIVE TIME STEP:      27
 MODFLOW STRESS PERIOD      5     CURRENT TIME STEP:     119     ITERATIONS:       5

 -----------------------------------------------------------------------------------

   CUMULATIVE VOLUMES               L**3   RATES FOR THIS TIME STEP           L**3/T
   ------------------                      ------------------------

                                     IN                                         IN
                                     --                                         --
        PRECIPITATION =        2596386.94          PRECIPITATION =                  
           STREAMFLOW =                               STREAMFLOW =                  
     GW BOUNDARY FLOW =              9.65       GW BOUNDARY FLOW =              0.48


                                    OUT                                        OUT
                                    ---                                        ---
   EVAPOTRANSPIRATION =        1528096.85     EVAPOTRANSPIRATION =           1840.16
           STREAMFLOW =        1236226.09             STREAMFLOW =          11847.07
     GW BOUNDARY FLOW =           4269.86       GW BOUNDARY FLOW =             35.74

   INFLOWS - OUTFLOWS =        -172196.21     INFLOWS - OUTFLOWS =         -13722.48
             --------                                   --------

 TOTAL STORAGE CHANGE =        -170327.44         STORAGE CHANGE =         -13713.62
       --------------                             --------------
         LAND SURFACE =         307905.41           LAND SURFACE =           -546.58
            SOIL ZONE =        1607871.81              SOIL ZONE =          -1085.09
     UNSATURATED ZONE =       -2774283.92       UNSATURATED ZONE =         -12667.72
       SATURATED ZONE =         688179.25         SATURATED ZONE =            585.77

 OVERALL BUDGET ERROR =          -1868.77           BUDGET ERROR =             -8.86


  PERCENT DISCREPANCY =             -0.07    PERCENT DISCREPANCY =             -0.06



1
 SUMMARY VOLUMETRIC BUDGET FOR GSFLOW 
 DATE: 02 03 1991              CUMULATIVE TIME STEP:       3
 MODFLOW STRESS PERIOD      6     CURRENT TIME STEP:     126     ITERATIONS:       5

 -----------------------------------------------------------------------------------

   CUMULATIVE VOLUMES               L**3   RATES FOR THIS TIME STEP           L**3/T
   ------------------                      ------------------------

                                     IN                                         IN
                                     --                                         --
        PRECIPITATION =        3228422.31          PRECIPITATION =          30459.53
           STREAMFLOW =                               STREAMFLOW =                  
     GW BOUNDARY FLOW =             13.31       GW BOUNDARY FLOW =              0.55


                                    OUT                                        OUT
                                    ---                                        ---
   EVAPOTRANSPIRATION =        1637052.07     EVAPOTRANSPIRATION =          21776.67
           STREAMFLOW =        1319295.34             STREAMFLOW =          11893.23
     GW BOUNDARY FLOW =           4519.99       GW BOUNDARY FLOW =             35.73

   INFLOWS - OUTFLOWS =         267568.23     INFLOWS - OUTFLOWS =          -3245.54
             --------                                   --------

 TOTAL STORAGE CHANGE =         269505.86         STORAGE CHANGE =          -3235.18
       --------------                             --------------
         LAND SURFACE =         148156.03           LAND SURFACE =         -26520.09
            SOIL ZONE =        2293345.93              SOIL ZONE =          35556.93
     UNSATURATED ZONE =       -2861169.24       UNSATURATED ZONE =         -12199.83
       SATURATED ZONE =         689173.13         SATURATED ZONE =            -72.19

 OVERALL BUDGET ERROR =          -1937.63           BUDGET ERROR =            -10.36


  PERCENT DISCREPANCY =             -0.06    PERCENT DISCREPANCY =             -0.03



1
 SUMMARY VOLUMETRIC BUDGET FOR GSFLOW 
 DATE: 02 10 1991              CUMULATIVE TIME STEP:      10
 MODFLOW STRESS PERIOD      6     CURRENT TIME STEP:     133     ITERATIONS:       5

 -----------------------------------------------------------------------------------

   CUMULATIVE VOLUMES               L**3   RATES FOR THIS TIME STEP           L**3/T
   ------------------                      ------------------------

                                     IN                                         IN
                                     --                                         --
        PRECIPITATION =        3510173.01          PRECIPITATION =                  
           STREAMFLOW =                               STREAMFLOW =                  
     GW BOUNDARY FLOW =             17.48       GW BOUNDARY FLOW =              0.63


                                    OUT                                        OUT
                                    ---                                        ---
   EVAPOTRANSPIRATION =        1806744.93     EVAPOTRANSPIRATION =          25967.88
           STREAMFLOW =        1401372.42             STREAMFLOW =          11862.36
     GW BOUNDARY FLOW =           4769.97       GW BOUNDARY FLOW =             35.71

   INFLOWS - OUTFLOWS =         297303.18     INFLOWS - OUTFLOWS =         -37865.33
             --------                                   --------

 TOTAL STORAGE CHANGE =         299281.55         STORAGE CHANGE =         -37853.79
       --------------                             --------------
         LAND SURFACE =          66705.78           LAND SURFACE =          -7439.35
            SOIL ZONE =        2488696.54              SOIL ZONE =         -18263.79
     UNSATURATED ZONE =       -2944510.82       UNSATURATED ZONE =         -11720.18
       SATURATED ZONE =         688390.06         SATURATED ZONE =           -430.46

 OVERALL BUDGET ERROR =          -1978.37           BUDGET ERROR =            -11.54


  PERCENT DISCREPANCY =             -0.06    PERCENT DISCREPANCY =             -0.03



1
 SUMMARY VOLUMETRIC BUDGET FOR GSFLOW 
 DATE: 02 17 1991              CUMULATIVE TIME STEP:      17
 MODFLOW STRESS PERIOD      6     CURRENT TIME STEP:     140     ITERATIONS:       5

 -----------------------------------------------------------------------------------

   CUMULATIVE VOLUMES               L**3   RATES FOR THIS TIME STEP           L**3/T
   ------------------                      ------------------------

                                     IN                                         IN
                                     --                                         --
        PRECIPITATION =        3510173.01          PRECIPITATION =                  
           STREAMFLOW =                               STREAMFLOW =                  
     GW BOUNDARY FLOW =             22.16       GW BOUNDARY FLOW =              0.70


                                    OUT                                        OUT
                                    ---                                        ---
   EVAPOTRANSPIRATION =        2052307.90     EVAPOTRANSPIRATION =          24098.24
           STREAMFLOW =        1484679.70             STREAMFLOW =          11919.83
     GW BOUNDARY FLOW =           5019.86       GW BOUNDARY FLOW =             35.67

   INFLOWS - OUTFLOWS =         -31812.29     INFLOWS - OUTFLOWS =         -36053.04
             --------                                   --------

 TOTAL STORAGE CHANGE =         -29744.57         STORAGE CHANGE =         -36039.65
       --------------                             --------------
         LAND SURFACE =          14950.27           LAND SURFACE =           -975.14
            SOIL ZONE =        2296447.92              SOIL ZONE =         -22971.27
     UNSATURATED ZONE =       -3024265.97       UNSATURATED ZONE =         -11114.33
       SATURATED ZONE =         683123.21         SATURATED ZONE =           -978.90

 OVERALL BUDGET ERROR =          -2067.72           BUDGET ERROR =            -13.40


  PERCENT DISCREPANCY =             -0.06    PERCENT DISCREPANCY =             -0.04



1
 SUMMARY VOLUMETRIC BUDGET FOR GSFLOW 
 DATE: 02 24 1991              CUMULATIVE TIME STEP:      24
 MODFLOW STRESS PERIOD      6     CURRENT TIME STEP:     147     ITERATIONS:       5

 -----------------------------------------------------------------------------------

   CUMULATIVE VOLUMES               L**3   RATES FOR THIS TIME STEP           L**3/T
   ------------------                      ------------------------

                                     IN                                         IN
                                     --                                         --
        PRECIPITATION =        3510173.01          PRECIPITATION =                  
           STREAMFLOW =                               STREAMFLOW =                  
     GW BOUNDARY FLOW =             27.30       GW BOUNDARY FLOW =              0.76


                                    OUT                                        OUT
                                    ---                                        ---
   EVAPOTRANSPIRATION =        2268275.51     EVAPOTRANSPIRATION =          21972.49
           STREAMFLOW =        1566964.21             STREAMFLOW =          11905.47
     GW BOUNDARY FLOW =           5268.86       GW BOUNDARY FLOW =             35.50

   INFLOWS - OUTFLOWS =        -330308.27     INFLOWS - OUTFLOWS =         -33912.70
             --------                                   --------

 TOTAL STORAGE CHANGE =        -328194.33         STORAGE CHANGE =         -33897.64
       --------------                             --------------
         LAND SURFACE =           6004.72           LAND SURFACE =           -187.76
            SOIL ZONE =        2090787.79              SOIL ZONE =         -21554.31
     UNSATURATED ZONE =       -3100450.09       UNSATURATED ZONE =         -10700.17
       SATURATED ZONE =         675463.26         SATURATED ZONE =          -1455.40

 OVERALL BUDGET ERROR =          -2113.94           BUDGET ERROR =            -15.06


  PERCENT DISCREPANCY =             -0.06    PERCENT DISCREPANCY =             -0.04



1
 SUMMARY VOLUMETRIC BUDGET FOR GSFLOW 
 DATE: 03 03 1991              CUMULATIVE TIME STEP:       3
 MODFLOW STRESS PERIOD      7     CURRENT TIME STEP:     154     ITERATIONS:       5

 -----------------------------------------------------------------------------------

   CUMULATIVE VOLUMES               L**3   RATES FOR THIS TIME STEP           L**3/T
   ------------------                      ------------------------

                                     IN                                         IN
                                     --                                         --
        PRECIPITATION =        6220189.63          PRECIPITATION =        1243187.24
           STREAMFLOW =                               STREAMFLOW =                  
     GW BOUNDARY FLOW =             32.90       GW BOUNDARY FLOW =              0.83


                                    OUT                                        OUT
                                    ---                                        ---
   EVAPOTRANSPIRATION =        2421570.75     EVAPOTRANSPIRATION =           8347.35
           STREAMFLOW =        1650010.42             STREAMFLOW =          11818.80
     GW BOUNDARY FLOW =           5516.69       GW BOUNDARY FLOW =             35.32

   INFLOWS - OUTFLOWS =        2143124.68     INFLOWS - OUTFLOWS =        1222986.60
             --------                                   --------

 TOTAL STORAGE CHANGE =        2145340.19         STORAGE CHANGE =        1223002.99
       --------------                             --------------
         LAND SURFACE =        2351702.99           LAND SURFACE =         893791.18
            SOIL ZONE =        2305781.81              SOIL ZONE =         341861.42
     UNSATURATED ZONE =       -3173634.19       UNSATURATED ZONE =         -10291.49
       SATURATED ZONE =         661489.58         SATURATED ZONE =          -2358.12

 OVERALL BUDGET ERROR =          -2215.50           BUDGET ERROR =            -16.39


  PERCENT DISCREPANCY =             -0.04    PERCENT DISCREPANCY =             -0.00



1
 SUMMARY VOLUMETRIC BUDGET FOR GSFLOW 
 DATE: 03 10 1991              CUMULATIVE TIME STEP:      10
 MODFLOW STRESS PERIOD      7     CURRENT TIME STEP:     161     ITERATIONS:       5

 -----------------------------------------------------------------------------------

   CUMULATIVE VOLUMES               L**3   RATES FOR THIS TIME STEP           L**3/T
   ------------------                      ------------------------

                                     IN                                         IN
                                     --                                         --
        PRECIPITATION =        8746030.42          PRECIPITATION =          32888.55
           STREAMFLOW =                               STREAMFLOW =                  
     GW BOUNDARY FLOW =             38.94       GW BOUNDARY FLOW =              0.89


                                    OUT                                        OUT
                                    ---                                        ---
   EVAPOTRANSPIRATION =        2485689.28     EVAPOTRANSPIRATION =           7389.76
           STREAMFLOW =        1755650.98             STREAMFLOW =          12552.32
     GW BOUNDARY FLOW =           5764.02       GW BOUNDARY FLOW =             35.23

   INFLOWS - OUTFLOWS =        4498965.08     INFLOWS - OUTFLOWS =          12912.13
             --------                                   --------

 TOTAL STORAGE CHANGE =        4501258.17         STORAGE CHANGE =          12930.14
       --------------                             --------------
         LAND SURFACE =        2489047.44           LAND SURFACE =         -20139.62
            SOIL ZONE =        4556749.71              SOIL ZONE =          36768.49
     UNSATURATED ZONE =       -3191765.91       UNSATURATED ZONE =          -1483.20
       SATURATED ZONE =         647226.92         SATURATED ZONE =          -2215.54

 OVERALL BUDGET ERROR =          -2293.09           BUDGET ERROR =            -18.00


  PERCENT DISCREPANCY =             -0.03    PERCENT DISCREPANCY =             -0.05



1
 SUMMARY VOLUMETRIC BUDGET FOR GSFLOW 
 DATE: 03 17 1991              CUMULATIVE TIME STEP:      17
 MODFLOW STRESS PERIOD      7     CURRENT TIME STEP:     168     ITERATIONS:       5

 -----------------------------------------------------------------------------------

   CUMULATIVE VOLUMES               L**3   RATES FOR THIS TIME STEP           L**3/T
   ------------------                      ------------------------

                                     IN                                         IN
                                     --                                         --
        PRECIPITATION =        9897129.71          PRECIPITATION =         157865.04
           STREAMFLOW =                               STREAMFLOW =                  
     GW BOUNDARY FLOW =             45.41       GW BOUNDARY FLOW =              0.95


                                    OUT                                        OUT
                                    ---                                        ---
   EVAPOTRANSPIRATION =        2509147.99     EVAPOTRANSPIRATION =           6883.18
           STREAMFLOW =        1844851.91             STREAMFLOW =          12799.79
     GW BOUNDARY FLOW =           6010.19       GW BOUNDARY FLOW =             35.11

   INFLOWS - OUTFLOWS =        5537165.03     INFLOWS - OUTFLOWS =         138147.92
             --------                                   --------

 TOTAL STORAGE CHANGE =        5539567.88         STORAGE CHANGE =         138167.13
       --------------                             --------------
         LAND SURFACE =        3616636.03           LAND SURFACE =         151296.14
            SOIL ZONE =        4494960.15              SOIL ZONE =          -8467.17
     UNSATURATED ZONE =       -3203742.66       UNSATURATED ZONE =          -2113.93
       SATURATED ZONE =         631714.37         SATURATED ZONE =          -2547.90

 OVERALL BUDGET ERROR =          -2402.85           BUDGET ERROR =            -19.21


  PERCENT DISCREPANCY =             -0.02    PERCENT DISCREPANCY =             -0.01



1
 SUMMARY VOLUMETRIC BUDGET FOR GSFLOW 
 DATE: 03 24 1991              CUMULATIVE TIME STEP:      24
 MODFLOW STRESS PERIOD      7     CURRENT TIME STEP:     175     ITERATIONS:       5

 -----------------------------------------------------------------------------------

   CUMULATIVE VOLUMES               L**3   RATES FOR THIS TIME STEP           L**3/T
   ------------------                      ------------------------

                                     IN                                         IN
                                     --                                         --
        PRECIPITATION =        1.1673D+07          PRECIPITATION =        1230031.83
           STREAMFLOW =                               STREAMFLOW =                  
     GW BOUNDARY FLOW =             52.28       GW BOUNDARY FLOW =              1.01


                                    OUT                                        OUT
                                    ---                                        ---
   EVAPOTRANSPIRATION =        2543775.18     EVAPOTRANSPIRATION =           4288.54
           STREAMFLOW =        1936023.80             STREAMFLOW =          13194.75
     GW BOUNDARY FLOW =           6255.49       GW BOUNDARY FLOW =             34.99

   INFLOWS - OUTFLOWS =        7187109.30     INFLOWS - OUTFLOWS =        1212514.56
             --------                                   --------

 TOTAL STORAGE CHANGE =        7189626.66         STORAGE CHANGE =        1212534.09
       --------------                             --------------
         LAND SURFACE =        5346769.67           LAND SURFACE =        1227877.70
            SOIL ZONE =        4448531.95              SOIL ZONE =         -10358.03
     UNSATURATED ZONE =       -3219724.16       UNSATURATED ZONE =          -2428.35
       SATURATED ZONE =         614049.20         SATURATED ZONE =          -2557.23

 OVERALL BUDGET ERROR =          -2517.36           BUDGET ERROR =            -19.54


  PERCENT DISCREPANCY =             -0.02    PERCENT DISCREPANCY =             -0.00



1
 SUMMARY VOLUMETRIC BUDGET FOR GSFLOW 
 DATE: 03 31 1991              CUMULATIVE TIME STEP:      31
 MODFLOW STRESS PERIOD      7     CURRENT TIME STEP:     182     ITERATIONS:       5

 -----------------------------------------------------------------------------------

   CUMULATIVE VOLUMES               L**3   RATES FOR THIS TIME STEP           L**3/T
   ------------------                      ------------------------

                                     IN                                         IN
                                     --                                         --
        PRECIPITATION =        1.2495D+07          PRECIPITATION =                  
           STREAMFLOW =                               STREAMFLOW =                  
     GW BOUNDARY FLOW =             59.54       GW BOUNDARY FLOW =              1.06


                                    OUT                                        OUT
                                    ---                                        ---
   EVAPOTRANSPIRATION =        2664793.22     EVAPOTRANSPIRATION =          47925.31
           STREAMFLOW =        2031086.22             STREAMFLOW =          14248.59
     GW BOUNDARY FLOW =           6500.10       GW BOUNDARY FLOW =             34.92

   INFLOWS - OUTFLOWS =        7793005.29     INFLOWS - OUTFLOWS =         -62207.76
             --------                                   --------

 TOTAL STORAGE CHANGE =        7795661.20         STORAGE CHANGE =         -62187.70
       --------------                             --------------
         LAND SURFACE =        5891403.37           LAND SURFACE =        -150773.77
            SOIL ZONE =        4544099.65              SOIL ZONE =          92435.31
     UNSATURATED ZONE =       -3235605.46       UNSATURATED ZONE =          -1218.13
       SATURATED ZONE =         595763.64         SATURATED ZONE =          -2631.11

 OVERALL BUDGET ERROR =          -2655.91           BUDGET ERROR =            -20.06


  PERCENT DISCREPANCY =             -0.02    PERCENT DISCREPANCY =             -0.03



1
 SUMMARY VOLUMETRIC BUDGET FOR GSFLOW 
 DATE: 04 07 1991              CUMULATIVE TIME STEP:       7
 MODFLOW STRESS PERIOD      8     CURRENT TIME STEP:     189     ITERATIONS:       5

 -----------------------------------------------------------------------------------

   CUMULATIVE VOLUMES               L**3   RATES FOR THIS TIME STEP           L**3/T
   ------------------                      ------------------------

                                     IN                                         IN
                                     --                                         --
        PRECIPITATION =        1.3018D+07          PRECIPITATION =                  
           STREAMFLOW =                               STREAMFLOW =                  
     GW BOUNDARY FLOW =             67.18       GW BOUNDARY FLOW =              1.11


                                    OUT                                        OUT
                                    ---                                        ---
   EVAPOTRANSPIRATION =        2972676.50     EVAPOTRANSPIRATION =          15898.60
           STREAMFLOW =        2259467.81             STREAMFLOW =          42431.31
     GW BOUNDARY FLOW =           6746.19       GW BOUNDARY FLOW =             35.32

   INFLOWS - OUTFLOWS =        7778913.42     INFLOWS - OUTFLOWS =         -58364.12
             --------                                   --------

 TOTAL STORAGE CHANGE =        7781664.94         STORAGE CHANGE =         -58346.12
       --------------                             --------------
         LAND SURFACE =        4251813.71           LAND SURFACE =         -72897.15
            SOIL ZONE =        6151378.69              SOIL ZONE =           5323.02
     UNSATURATED ZONE =       -3201202.70       UNSATURATED ZONE =          11044.02
       SATURATED ZONE =         579675.24         SATURATED ZONE =          -1816.02

 OVERALL BUDGET ERROR =          -2751.51           BUDGET ERROR =            -17.99


  PERCENT DISCREPANCY =             -0.02    PERCENT DISCREPANCY =             -0.03



1
 SUMMARY VOLUMETRIC BUDGET FOR GSFLOW 
 DATE: 04 14 1991              CUMULATIVE TIME STEP:      14
 MODFLOW STRESS PERIOD      8     CURRENT TIME STEP:     196     ITERATIONS:       7

 -----------------------------------------------------------------------------------

   CUMULATIVE VOLUMES               L**3   RATES FOR THIS TIME STEP           L**3/T
   ------------------                      ------------------------

                                     IN                                         IN
                                     --                                         --
        PRECIPITATION =        1.3018D+07          PRECIPITATION =                  
           STREAMFLOW =                               STREAMFLOW =                  
     GW BOUNDARY FLOW =             75.14       GW BOUNDARY FLOW =              1.16


                                    OUT                                        OUT
                                    ---                                        ---
   EVAPOTRANSPIRATION =        3156599.32     EVAPOTRANSPIRATION =          42060.22
           STREAMFLOW =        2685717.73             STREAMFLOW =          74041.31
     GW BOUNDARY FLOW =           6994.57       GW BOUNDARY FLOW =             35.60

   INFLOWS - OUTFLOWS =        7168500.26     INFLOWS - OUTFLOWS =        -116135.97
             --------                                   --------

 TOTAL STORAGE CHANGE =        7171285.75         STORAGE CHANGE =        -116133.14
       --------------                             --------------
         LAND SURFACE =        3591590.24           LAND SURFACE =        -191145.76
            SOIL ZONE =        6136203.42              SOIL ZONE =          65867.67
     UNSATURATED ZONE =       -3127489.67       UNSATURATED ZONE =          10063.97
       SATURATED ZONE =         570981.75         SATURATED ZONE =           -919.02

 OVERALL BUDGET ERROR =          -2785.49           BUDGET ERROR =             -2.83


  PERCENT DISCREPANCY =             -0.02    PERCENT DISCREPANCY =             -0.00



1
 SUMMARY VOLUMETRIC BUDGET FOR GSFLOW 
 DATE: 04 21 1991              CUMULATIVE TIME STEP:      21
 MODFLOW STRESS PERIOD      8     CURRENT TIME STEP:     203     ITERATIONS:       9

 -----------------------------------------------------------------------------------

   CUMULATIVE VOLUMES               L**3   RATES FOR THIS TIME STEP           L**3/T
   ------------------                      ------------------------

                                     IN                                         IN
                                     --                                         --
        PRECIPITATION =        1.3034D+07          PRECIPITATION =                  
           STREAMFLOW =                               STREAMFLOW =                  
     GW BOUNDARY FLOW =             83.40       GW BOUNDARY FLOW =              1.20


                                    OUT                                        OUT
                                    ---                                        ---
   EVAPOTRANSPIRATION =        3410220.33     EVAPOTRANSPIRATION =          46843.68
           STREAMFLOW =        3237605.97             STREAMFLOW =          90765.98
     GW BOUNDARY FLOW =           7243.64       GW BOUNDARY FLOW =             35.67

   INFLOWS - OUTFLOWS =        6379075.56     INFLOWS - OUTFLOWS =        -137644.12
             --------                                   --------

 TOTAL STORAGE CHANGE =        6381875.26         STORAGE CHANGE =        -137643.18
       --------------                             --------------
         LAND SURFACE =        2434561.50           LAND SURFACE =        -213934.43
            SOIL ZONE =        6434418.56              SOIL ZONE =          64677.77
     UNSATURATED ZONE =       -3053314.14       UNSATURATED ZONE =          12047.26
       SATURATED ZONE =         566209.34         SATURATED ZONE =           -433.78

 OVERALL BUDGET ERROR =          -2799.70           BUDGET ERROR =             -0.94


  PERCENT DISCREPANCY =             -0.02    PERCENT DISCREPANCY =             -0.00



1
 SUMMARY VOLUMETRIC BUDGET FOR GSFLOW 
 DATE: 04 28 1991              CUMULATIVE TIME STEP:      28
 MODFLOW STRESS PERIOD      8     CURRENT TIME STEP:     210     ITERATIONS:      10

 -----------------------------------------------------------------------------------

   CUMULATIVE VOLUMES               L**3   RATES FOR THIS TIME STEP           L**3/T
   ------------------                      ------------------------

                                     IN                                         IN
                                     --                                         --
        PRECIPITATION =        1.3303D+07          PRECIPITATION =                  
           STREAMFLOW =                               STREAMFLOW =                  
     GW BOUNDARY FLOW =             91.94       GW BOUNDARY FLOW =              1.24


                                    OUT                                        OUT
                                    ---                                        ---
   EVAPOTRANSPIRATION =        3678322.29     EVAPOTRANSPIRATION =          58070.50
           STREAMFLOW =        3885365.75             STREAMFLOW =          91882.08
     GW BOUNDARY FLOW =           7492.99       GW BOUNDARY FLOW =             35.57

   INFLOWS - OUTFLOWS =        5732341.41     INFLOWS - OUTFLOWS =        -149986.91
             --------                                   --------

 TOTAL STORAGE CHANGE =        5735154.76         STORAGE CHANGE =        -149986.29
       --------------                             --------------
         LAND SURFACE =        1696015.43           LAND SURFACE =        -133870.58
            SOIL ZONE =        6442544.81              SOIL ZONE =         -28020.62
     UNSATURATED ZONE =       -2969365.64       UNSATURATED ZONE =          11280.38
       SATURATED ZONE =         565960.17         SATURATED ZONE =            624.53

 OVERALL BUDGET ERROR =          -2813.36           BUDGET ERROR =             -0.62


  PERCENT DISCREPANCY =             -0.02    PERCENT DISCREPANCY =             -0.00



1
 SUMMARY VOLUMETRIC BUDGET FOR GSFLOW 
 DATE: 05 05 1991              CUMULATIVE TIME STEP:       5
 MODFLOW STRESS PERIOD      9     CURRENT TIME STEP:     217     ITERATIONS:       7

 -----------------------------------------------------------------------------------

   CUMULATIVE VOLUMES               L**3   RATES FOR THIS TIME STEP           L**3/T
   ------------------                      ------------------------

                                     IN                                         IN
                                     --                                         --
        PRECIPITATION =        1.3510D+07          PRECIPITATION =                  
           STREAMFLOW =                               STREAMFLOW =                  
     GW BOUNDARY FLOW =            100.74       GW BOUNDARY FLOW =              1.27


                                    OUT                                        OUT
                                    ---                                        ---
   EVAPOTRANSPIRATION =        4055080.05     EVAPOTRANSPIRATION =          90182.26
           STREAMFLOW =        4456456.08             STREAMFLOW =          83022.76
     GW BOUNDARY FLOW =           7740.67       GW BOUNDARY FLOW =             35.33

   INFLOWS - OUTFLOWS =        4990532.07     INFLOWS - OUTFLOWS =        -173239.07
             --------                                   --------

 TOTAL STORAGE CHANGE =        4993353.03         STORAGE CHANGE =        -173238.42
       --------------                             --------------
         LAND SURFACE =        1002302.70           LAND SURFACE =        -146993.91
            SOIL ZONE =        6321703.70              SOIL ZONE =         -36476.10
     UNSATURATED ZONE =       -2897055.79       UNSATURATED ZONE =          10156.96
       SATURATED ZONE =         566402.42         SATURATED ZONE =             74.63

 OVERALL BUDGET ERROR =          -2820.96           BUDGET ERROR =             -0.65


  PERCENT DISCREPANCY =             -0.02    PERCENT DISCREPANCY =             -0.00



1
 SUMMARY VOLUMETRIC BUDGET FOR GSFLOW 
 DATE: 05 12 1991              CUMULATIVE TIME STEP:      12
 MODFLOW STRESS PERIOD      9     CURRENT TIME STEP:     224     ITERATIONS:       7

 -----------------------------------------------------------------------------------

   CUMULATIVE VOLUMES               L**3   RATES FOR THIS TIME STEP           L**3/T
   ------------------                      ------------------------

                                     IN                                         IN
                                     --                                         --
        PRECIPITATION =        1.4029D+07          PRECIPITATION =                  
           STREAMFLOW =                               STREAMFLOW =                  
     GW BOUNDARY FLOW =            109.80       GW BOUNDARY FLOW =              1.31


                                    OUT                                        OUT
                                    ---                                        ---
   EVAPOTRANSPIRATION =        4450467.32     EVAPOTRANSPIRATION =          68750.33
           STREAMFLOW =        4991682.29             STREAMFLOW =          85378.92
     GW BOUNDARY FLOW =           7986.69       GW BOUNDARY FLOW =             35.17

   INFLOWS - OUTFLOWS =        4579195.65     INFLOWS - OUTFLOWS =        -154163.10
             --------                                   --------

 TOTAL STORAGE CHANGE =        4582019.82         STORAGE CHANGE =        -154162.63
       --------------                             --------------
         LAND SURFACE =         554756.95           LAND SURFACE =        -204088.73
            SOIL ZONE =        6293314.67              SOIL ZONE =          40896.19
     UNSATURATED ZONE =       -2835165.33       UNSATURATED ZONE =           8748.50
       SATURATED ZONE =         569113.53         SATURATED ZONE =            281.41

 OVERALL BUDGET ERROR =          -2824.17           BUDGET ERROR =             -0.48


  PERCENT DISCREPANCY =             -0.02    PERCENT DISCREPANCY =             -0.00



1
 SUMMARY VOLUMETRIC BUDGET FOR GSFLOW 
 DATE: 05 19 1991              CUMULATIVE TIME STEP:      19
 MODFLOW STRESS PERIOD      9     CURRENT TIME STEP:     231     ITERATIONS:       7

 -----------------------------------------------------------------------------------

   CUMULATIVE VOLUMES               L**3   RATES FOR THIS TIME STEP           L**3/T
   ------------------                      ------------------------

                                     IN                                         IN
                                     --                                         --
        PRECIPITATION =        1.4365D+07          PRECIPITATION =                  
           STREAMFLOW =                               STREAMFLOW =                  
     GW BOUNDARY FLOW =            119.14       GW BOUNDARY FLOW =              1.35


                                    OUT                                        OUT
                                    ---                                        ---
   EVAPOTRANSPIRATION =        4888903.02     EVAPOTRANSPIRATION =          20369.32
           STREAMFLOW =        5437838.39             STREAMFLOW =          55142.07
     GW BOUNDARY FLOW =           8230.43       GW BOUNDARY FLOW =             34.64

   INFLOWS - OUTFLOWS =        4030525.61     INFLOWS - OUTFLOWS =         -75544.69
             --------                                   --------

 TOTAL STORAGE CHANGE =        4033349.96         STORAGE CHANGE =         -75545.06
       --------------                             --------------
         LAND SURFACE =         218155.85           LAND SURFACE =         -22216.95
            SOIL ZONE =        6030165.78              SOIL ZONE =         -59322.79
     UNSATURATED ZONE =       -2787328.86       UNSATURATED ZONE =           5427.79
       SATURATED ZONE =         572357.19         SATURATED ZONE =            566.89

 OVERALL BUDGET ERROR =          -2824.35           BUDGET ERROR =              0.38


  PERCENT DISCREPANCY =             -0.02    PERCENT DISCREPANCY =              0.00



1
 SUMMARY VOLUMETRIC BUDGET FOR GSFLOW 
 DATE: 05 26 1991              CUMULATIVE TIME STEP:      26
 MODFLOW STRESS PERIOD      9     CURRENT TIME STEP:     238     ITERATIONS:       6

 -----------------------------------------------------------------------------------

   CUMULATIVE VOLUMES               L**3   RATES FOR THIS TIME STEP           L**3/T
   ------------------                      ------------------------

                                     IN                                         IN
                                     --                                         --
        PRECIPITATION =        1.4426D+07          PRECIPITATION =                  
           STREAMFLOW =                               STREAMFLOW =                  
     GW BOUNDARY FLOW =            128.76       GW BOUNDARY FLOW =              1.39


                                    OUT                                        OUT
                                    ---                                        ---
   EVAPOTRANSPIRATION =        5573379.26     EVAPOTRANSPIRATION =          76940.71
           STREAMFLOW =        5741210.25             STREAMFLOW =          30971.13
     GW BOUNDARY FLOW =           8471.06       GW BOUNDARY FLOW =             34.12

   INFLOWS - OUTFLOWS =        3103565.79     INFLOWS - OUTFLOWS =        -107944.58
             --------                                   --------

 TOTAL STORAGE CHANGE =        3106388.60         STORAGE CHANGE =        -107943.79
       --------------                             --------------
         LAND SURFACE =          51493.15           LAND SURFACE =          -7682.13
            SOIL ZONE =        5248470.04              SOIL ZONE =         -99894.94
     UNSATURATED ZONE =       -2767128.40       UNSATURATED ZONE =           -135.04
       SATURATED ZONE =         573553.80         SATURATED ZONE =           -231.67

 OVERALL BUDGET ERROR =          -2822.80           BUDGET ERROR =             -0.79


  PERCENT DISCREPANCY =             -0.02    PERCENT DISCREPANCY =             -0.00



1
 SUMMARY VOLUMETRIC BUDGET FOR GSFLOW 
 DATE: 06 02 1991              CUMULATIVE TIME STEP:       2
 MODFLOW STRESS PERIOD     10     CURRENT TIME STEP:     245     ITERATIONS:       6

 -----------------------------------------------------------------------------------

   CUMULATIVE VOLUMES               L**3   RATES FOR THIS TIME STEP           L**3/T
   ------------------                      ------------------------

                                     IN                                         IN
                                     --                                         --
        PRECIPITATION =        1.4671D+07          PRECIPITATION =                  
           STREAMFLOW =                               STREAMFLOW =                  
     GW BOUNDARY FLOW =            138.66       GW BOUNDARY FLOW =              1.43


                                    OUT                                        OUT
                                    ---                                        ---
   EVAPOTRANSPIRATION =        6162190.25     EVAPOTRANSPIRATION =         127630.39
           STREAMFLOW =        5950644.03             STREAMFLOW =          25625.10
     GW BOUNDARY FLOW =           8709.15       GW BOUNDARY FLOW =             33.87

   INFLOWS - OUTFLOWS =        2549570.04     INFLOWS - OUTFLOWS =        -153287.93
             --------                                   --------

 TOTAL STORAGE CHANGE =        2552412.41         STORAGE CHANGE =        -153284.41
       --------------                             --------------
         LAND SURFACE =          18305.18           LAND SURFACE =          -3906.15
            SOIL ZONE =        4746456.55              SOIL ZONE =        -145296.95
     UNSATURATED ZONE =       -2781508.59       UNSATURATED ZONE =          -3163.85
       SATURATED ZONE =         569159.27         SATURATED ZONE =           -917.46

 OVERALL BUDGET ERROR =          -2842.37           BUDGET ERROR =             -3.52


  PERCENT DISCREPANCY =             -0.02    PERCENT DISCREPANCY =             -0.00



1
 SUMMARY VOLUMETRIC BUDGET FOR GSFLOW 
 DATE: 06 09 1991              CUMULATIVE TIME STEP:       9
 MODFLOW STRESS PERIOD     10     CURRENT TIME STEP:     252     ITERATIONS:       7

 -----------------------------------------------------------------------------------

   CUMULATIVE VOLUMES               L**3   RATES FOR THIS TIME STEP           L**3/T
   ------------------                      ------------------------

                                     IN                                         IN
                                     --                                         --
        PRECIPITATION =        1.4671D+07          PRECIPITATION =                  
           STREAMFLOW =                               STREAMFLOW =                  
     GW BOUNDARY FLOW =            148.86       GW BOUNDARY FLOW =              1.47


                                    OUT                                        OUT
                                    ---                                        ---
   EVAPOTRANSPIRATION =        6951088.72     EVAPOTRANSPIRATION =         172555.02
           STREAMFLOW =        6100973.63             STREAMFLOW =          18643.75
     GW BOUNDARY FLOW =           8945.09       GW BOUNDARY FLOW =             33.58

   INFLOWS - OUTFLOWS =        1610116.22     INFLOWS - OUTFLOWS =        -191230.88
             --------                                   --------

 TOTAL STORAGE CHANGE =        1612998.54         STORAGE CHANGE =        -191224.67
       --------------                             --------------
         LAND SURFACE =           3417.33           LAND SURFACE =          -2018.63
            SOIL ZONE =        3869643.86              SOIL ZONE =        -180598.94
     UNSATURATED ZONE =       -2818444.28       UNSATURATED ZONE =          -6469.22
       SATURATED ZONE =         558381.62         SATURATED ZONE =          -2137.88

 OVERALL BUDGET ERROR =          -2882.32           BUDGET ERROR =             -6.21


  PERCENT DISCREPANCY =             -0.02    PERCENT DISCREPANCY =             -0.00



1
 SUMMARY VOLUMETRIC BUDGET FOR GSFLOW 
 DATE: 06 16 1991              CUMULATIVE TIME STEP:      16
 MODFLOW STRESS PERIOD     10     CURRENT TIME STEP:     259     ITERATIONS:       6

 -----------------------------------------------------------------------------------

   CUMULATIVE VOLUMES               L**3   RATES FOR THIS TIME STEP           L**3/T
   ------------------                      ------------------------

                                     IN                                         IN
                                     --                                         --
        PRECIPITATION =        1.4671D+07          PRECIPITATION =                  
           STREAMFLOW =                               STREAMFLOW =                  
     GW BOUNDARY FLOW =            159.34       GW BOUNDARY FLOW =              1.51


                                    OUT                                        OUT
                                    ---                                        ---
   EVAPOTRANSPIRATION =        7968166.29     EVAPOTRANSPIRATION =         117053.72
           STREAMFLOW =        6218394.48             STREAMFLOW =          16213.96
     GW BOUNDARY FLOW =           9179.29       GW BOUNDARY FLOW =             33.38

   INFLOWS - OUTFLOWS =         475394.08     INFLOWS - OUTFLOWS =        -133299.54
             --------                                   --------

 TOTAL STORAGE CHANGE =         478340.50         STORAGE CHANGE =        -133288.64
       --------------                             --------------
         LAND SURFACE =             89.42           LAND SURFACE =            -43.13
            SOIL ZONE =        2844272.43              SOIL ZONE =        -113386.07
     UNSATURATED ZONE =       -2904425.89       UNSATURATED ZONE =         -16208.08
       SATURATED ZONE =         538404.53         SATURATED ZONE =          -3651.35

 OVERALL BUDGET ERROR =          -2946.41           BUDGET ERROR =            -10.90


  PERCENT DISCREPANCY =             -0.02    PERCENT DISCREPANCY =             -0.01



1
 SUMMARY VOLUMETRIC BUDGET FOR GSFLOW 
 DATE: 06 23 1991              CUMULATIVE TIME STEP:      23
 MODFLOW STRESS PERIOD     10     CURRENT TIME STEP:     266     ITERATIONS:       5

 -----------------------------------------------------------------------------------

   CUMULATIVE VOLUMES               L**3   RATES FOR THIS TIME STEP           L**3/T
   ------------------                      ------------------------

                                     IN                                         IN
                                     --                                         --
        PRECIPITATION =        1.4671D+07          PRECIPITATION =                  
           STREAMFLOW =                               STREAMFLOW =                  
     GW BOUNDARY FLOW =            169.91       GW BOUNDARY FLOW =              1.48


                                    OUT                                        OUT
                                    ---                                        ---
   EVAPOTRANSPIRATION =        8511791.48     EVAPOTRANSPIRATION =          39005.26
           STREAMFLOW =        6328289.55             STREAMFLOW =          15407.48
     GW BOUNDARY FLOW =           9412.30       GW BOUNDARY FLOW =             33.22

   INFLOWS - OUTFLOWS =        -178348.62     INFLOWS - OUTFLOWS =         -54444.48
             --------                                   --------

 TOTAL STORAGE CHANGE =        -175311.69         STORAGE CHANGE =         -54423.35
       --------------                             --------------
         LAND SURFACE =             10.53           LAND SURFACE =             -3.38
            SOIL ZONE =        2336917.09              SOIL ZONE =         -35974.51
     UNSATURATED ZONE =       -3017426.77       UNSATURATED ZONE =         -13213.87
       SATURATED ZONE =         505187.47         SATURATED ZONE =          -5231.59

 OVERALL BUDGET ERROR =          -3036.93           BUDGET ERROR =            -21.13


  PERCENT DISCREPANCY =             -0.02    PERCENT DISCREPANCY =             -0.04



1
 SUMMARY VOLUMETRIC BUDGET FOR GSFLOW 
 DATE: 06 30 1991              CUMULATIVE TIME STEP:      30
 MODFLOW STRESS PERIOD     10     CURRENT TIME STEP:     273     ITERATIONS:       5

 -----------------------------------------------------------------------------------

   CUMULATIVE VOLUMES               L**3   RATES FOR THIS TIME STEP           L**3/T
   ------------------                      ------------------------

                                     IN                                         IN
[...]
   ------------------                      ------------------------

                                     IN                                         IN
                                     --                                         --
        PRECIPITATION =        2.4013D+08          PRECIPITATION =                  
           STREAMFLOW =                               STREAMFLOW =                  
     GW BOUNDARY FLOW =          14852.72       GW BOUNDARY FLOW =              6.14


                                    OUT                                        OUT
                                    ---                                        ---
   EVAPOTRANSPIRATION =        1.4360D+08     EVAPOTRANSPIRATION =          27627.04
           STREAMFLOW =        1.2060D+08             STREAMFLOW =           6542.10
     GW BOUNDARY FLOW =          95672.50       GW BOUNDARY FLOW =             22.28

   INFLOWS - OUTFLOWS =       -2.4151D+07     INFLOWS - OUTFLOWS =         -34185.28
             --------                                   --------

 TOTAL STORAGE CHANGE =       -2.4136D+07         STORAGE CHANGE =         -34185.81
       --------------                             --------------
         LAND SURFACE =          31152.71           LAND SURFACE =         -27523.93
            SOIL ZONE =        -193119.69              SOIL ZONE =            -58.14
     UNSATURATED ZONE =         405716.16       UNSATURATED ZONE =          -1679.56
       SATURATED ZONE =       -2.4380D+07         SATURATED ZONE =          -4924.19

 OVERALL BUDGET ERROR =         -15087.44           BUDGET ERROR =              0.53


  PERCENT DISCREPANCY =             -0.01    PERCENT DISCREPANCY =              0.00



1
 SUMMARY VOLUMETRIC BUDGET FOR GSFLOW 
 DATE: 09 10 2000              CUMULATIVE TIME STEP:      10
 MODFLOW STRESS PERIOD    121     CURRENT TIME STEP:    3633     ITERATIONS:      13

 -----------------------------------------------------------------------------------

   CUMULATIVE VOLUMES               L**3   RATES FOR THIS TIME STEP           L**3/T
   ------------------                      ------------------------

                                     IN                                         IN
                                     --                                         --
        PRECIPITATION =        2.4013D+08          PRECIPITATION =                  
           STREAMFLOW =                               STREAMFLOW =                  
     GW BOUNDARY FLOW =          14895.71       GW BOUNDARY FLOW =              6.14


                                    OUT                                        OUT
                                    ---                                        ---
   EVAPOTRANSPIRATION =        1.4369D+08     EVAPOTRANSPIRATION =           8666.12
           STREAMFLOW =        1.2063D+08             STREAMFLOW =           4368.83
     GW BOUNDARY FLOW =          95827.05       GW BOUNDARY FLOW =             22.05

   INFLOWS - OUTFLOWS =       -2.4271D+07     INFLOWS - OUTFLOWS =         -13050.85
             --------                                   --------

 TOTAL STORAGE CHANGE =       -2.4256D+07         STORAGE CHANGE =         -13050.16
       --------------                             --------------
         LAND SURFACE =                             LAND SURFACE =                  
            SOIL ZONE =        -209956.12              SOIL ZONE =          -2514.02
     UNSATURATED ZONE =         394193.95       UNSATURATED ZONE =          -1646.87
       SATURATED ZONE =       -2.4440D+07         SATURATED ZONE =          -8889.26

 OVERALL BUDGET ERROR =         -15097.09           BUDGET ERROR =             -0.69


  PERCENT DISCREPANCY =             -0.01    PERCENT DISCREPANCY =             -0.01



1
 SUMMARY VOLUMETRIC BUDGET FOR GSFLOW 
 DATE: 09 17 2000              CUMULATIVE TIME STEP:      17
 MODFLOW STRESS PERIOD    121     CURRENT TIME STEP:    3640     ITERATIONS:       7

 -----------------------------------------------------------------------------------

   CUMULATIVE VOLUMES               L**3   RATES FOR THIS TIME STEP           L**3/T
   ------------------                      ------------------------

                                     IN                                         IN
                                     --                                         --
        PRECIPITATION =        2.4013D+08          PRECIPITATION =                  
           STREAMFLOW =                               STREAMFLOW =                  
     GW BOUNDARY FLOW =          14938.75       GW BOUNDARY FLOW =              6.15


                                    OUT                                        OUT
                                    ---                                        ---
   EVAPOTRANSPIRATION =        1.4376D+08     EVAPOTRANSPIRATION =           9957.82
           STREAMFLOW =        1.2066D+08             STREAMFLOW =           4158.61
     GW BOUNDARY FLOW =          95980.98       GW BOUNDARY FLOW =             22.00

   INFLOWS - OUTFLOWS =       -2.4374D+07     INFLOWS - OUTFLOWS =         -14132.28
             --------                                   --------

 TOTAL STORAGE CHANGE =       -2.4358D+07         STORAGE CHANGE =         -14130.92
       --------------                             --------------
         LAND SURFACE =                             LAND SURFACE =                  
            SOIL ZONE =        -230069.38              SOIL ZONE =          -2521.10
     UNSATURATED ZONE =         382760.05       UNSATURATED ZONE =          -1610.98
       SATURATED ZONE =       -2.4511D+07         SATURATED ZONE =          -9998.84

 OVERALL BUDGET ERROR =         -15099.47           BUDGET ERROR =             -1.36


  PERCENT DISCREPANCY =             -0.01    PERCENT DISCREPANCY =             -0.01



1
 SUMMARY VOLUMETRIC BUDGET FOR GSFLOW 
 DATE: 09 24 2000              CUMULATIVE TIME STEP:      24
 MODFLOW STRESS PERIOD    121     CURRENT TIME STEP:    3647     ITERATIONS:       5

 -----------------------------------------------------------------------------------

   CUMULATIVE VOLUMES               L**3   RATES FOR THIS TIME STEP           L**3/T
   ------------------                      ------------------------

                                     IN                                         IN
                                     --                                         --
        PRECIPITATION =        2.4013D+08          PRECIPITATION =                  
           STREAMFLOW =                               STREAMFLOW =                  
     GW BOUNDARY FLOW =          14981.83       GW BOUNDARY FLOW =              6.16


                                    OUT                                        OUT
                                    ---                                        ---
   EVAPOTRANSPIRATION =        1.4382D+08     EVAPOTRANSPIRATION =           5147.10
           STREAMFLOW =        1.2069D+08             STREAMFLOW =           5327.77
     GW BOUNDARY FLOW =          96135.32       GW BOUNDARY FLOW =             22.13

   INFLOWS - OUTFLOWS =       -2.4461D+07     INFLOWS - OUTFLOWS =         -10490.84
             --------                                   --------

 TOTAL STORAGE CHANGE =       -2.4446D+07         STORAGE CHANGE =         -10486.64
       --------------                             --------------
         LAND SURFACE =                             LAND SURFACE =                  
            SOIL ZONE =        -242984.17              SOIL ZONE =          -1118.17
     UNSATURATED ZONE =         371691.67       UNSATURATED ZONE =          -1523.24
       SATURATED ZONE =       -2.4574D+07         SATURATED ZONE =          -7845.23

 OVERALL BUDGET ERROR =         -15121.34           BUDGET ERROR =             -4.20


  PERCENT DISCREPANCY =             -0.01    PERCENT DISCREPANCY =             -0.04



1
 SUMMARY VOLUMETRIC BUDGET FOR GSFLOW 
 DATE: 10 01 2000              CUMULATIVE TIME STEP:       1
 MODFLOW STRESS PERIOD    122     CURRENT TIME STEP:    3654     ITERATIONS:       7

 -----------------------------------------------------------------------------------

   CUMULATIVE VOLUMES               L**3   RATES FOR THIS TIME STEP           L**3/T
   ------------------                      ------------------------

                                     IN                                         IN
                                     --                                         --
        PRECIPITATION =        2.4013D+08          PRECIPITATION =                  
           STREAMFLOW =                               STREAMFLOW =                  
     GW BOUNDARY FLOW =          15024.97       GW BOUNDARY FLOW =              6.16


                                    OUT                                        OUT
                                    ---                                        ---
   EVAPOTRANSPIRATION =        1.4388D+08     EVAPOTRANSPIRATION =           8325.63
           STREAMFLOW =        1.2072D+08             STREAMFLOW =           4416.49
     GW BOUNDARY FLOW =          96289.55       GW BOUNDARY FLOW =             22.03

   INFLOWS - OUTFLOWS =       -2.4552D+07     INFLOWS - OUTFLOWS =         -12757.98
             --------                                   --------

 TOTAL STORAGE CHANGE =       -2.4537D+07         STORAGE CHANGE =         -12758.28
       --------------                             --------------
         LAND SURFACE =                             LAND SURFACE =                  
            SOIL ZONE =        -255410.16              SOIL ZONE =          -1635.77
     UNSATURATED ZONE =         360711.30       UNSATURATED ZONE =          -1584.67
       SATURATED ZONE =       -2.4642D+07         SATURATED ZONE =          -9537.84

 OVERALL BUDGET ERROR =         -15124.70           BUDGET ERROR =              0.31


  PERCENT DISCREPANCY =             -0.01    PERCENT DISCREPANCY =              0.00



1
 SUMMARY VOLUMETRIC BUDGET FOR GSFLOW 
 DATE: 10 08 2000              CUMULATIVE TIME STEP:       8
 MODFLOW STRESS PERIOD    122     CURRENT TIME STEP:    3661     ITERATIONS:       3

 -----------------------------------------------------------------------------------

   CUMULATIVE VOLUMES               L**3   RATES FOR THIS TIME STEP           L**3/T
   ------------------                      ------------------------

                                     IN                                         IN
                                     --                                         --
        PRECIPITATION =        2.4013D+08          PRECIPITATION =                  
           STREAMFLOW =                               STREAMFLOW =                  
     GW BOUNDARY FLOW =          15068.15       GW BOUNDARY FLOW =              6.17


                                    OUT                                        OUT
                                    ---                                        ---
   EVAPOTRANSPIRATION =        1.4393D+08     EVAPOTRANSPIRATION =           6972.22
           STREAMFLOW =        1.2075D+08             STREAMFLOW =           4816.02
     GW BOUNDARY FLOW =          96443.98       GW BOUNDARY FLOW =             22.07

   INFLOWS - OUTFLOWS =       -2.4636D+07     INFLOWS - OUTFLOWS =         -11804.14
             --------                                   --------

 TOTAL STORAGE CHANGE =       -2.4620D+07         STORAGE CHANGE =         -11740.21
       --------------                             --------------
         LAND SURFACE =                             LAND SURFACE =                  
            SOIL ZONE =        -264734.01              SOIL ZONE =          -1219.47
     UNSATURATED ZONE =         349870.62       UNSATURATED ZONE =          -1552.85
       SATURATED ZONE =       -2.4706D+07         SATURATED ZONE =          -8967.89

 OVERALL BUDGET ERROR =         -15190.07           BUDGET ERROR =            -63.93


  PERCENT DISCREPANCY =             -0.01    PERCENT DISCREPANCY =             -0.54



1
 SUMMARY VOLUMETRIC BUDGET FOR GSFLOW 
 DATE: 10 15 2000              CUMULATIVE TIME STEP:      15
 MODFLOW STRESS PERIOD    122     CURRENT TIME STEP:    3668     ITERATIONS:       7

 -----------------------------------------------------------------------------------

   CUMULATIVE VOLUMES               L**3   RATES FOR THIS TIME STEP           L**3/T
   ------------------                      ------------------------

                                     IN                                         IN
                                     --                                         --
        PRECIPITATION =        2.4034D+08          PRECIPITATION =                  
           STREAMFLOW =                               STREAMFLOW =                  
     GW BOUNDARY FLOW =          15111.36       GW BOUNDARY FLOW =              6.18


                                    OUT                                        OUT
                                    ---                                        ---
   EVAPOTRANSPIRATION =        1.4401D+08     EVAPOTRANSPIRATION =           8054.51
           STREAMFLOW =        1.2080D+08             STREAMFLOW =           6104.12
     GW BOUNDARY FLOW =          96599.87       GW BOUNDARY FLOW =             22.23

   INFLOWS - OUTFLOWS =       -2.4546D+07     INFLOWS - OUTFLOWS =         -14174.68
             --------                                   --------

 TOTAL STORAGE CHANGE =       -2.4531D+07         STORAGE CHANGE =         -14174.11
       --------------                             --------------
         LAND SURFACE =            289.77           LAND SURFACE =          -3209.51
            SOIL ZONE =        -122143.94              SOIL ZONE =          -2067.15
     UNSATURATED ZONE =         338973.50       UNSATURATED ZONE =          -1605.83
       SATURATED ZONE =       -2.4748D+07         SATURATED ZONE =          -7291.62

 OVERALL BUDGET ERROR =         -15217.08           BUDGET ERROR =             -0.57


  PERCENT DISCREPANCY =             -0.01    PERCENT DISCREPANCY =             -0.00



1
 SUMMARY VOLUMETRIC BUDGET FOR GSFLOW 
 DATE: 10 22 2000              CUMULATIVE TIME STEP:      22
 MODFLOW STRESS PERIOD    122     CURRENT TIME STEP:    3675     ITERATIONS:       5

 -----------------------------------------------------------------------------------

   CUMULATIVE VOLUMES               L**3   RATES FOR THIS TIME STEP           L**3/T
   ------------------                      ------------------------

                                     IN                                         IN
                                     --                                         --
        PRECIPITATION =        2.4039D+08          PRECIPITATION =                  
           STREAMFLOW =                               STREAMFLOW =                  
     GW BOUNDARY FLOW =          15154.61       GW BOUNDARY FLOW =              6.18


                                    OUT                                        OUT
                                    ---                                        ---
   EVAPOTRANSPIRATION =        1.4405D+08     EVAPOTRANSPIRATION =           8033.28
           STREAMFLOW =        1.2084D+08             STREAMFLOW =           7136.06
     GW BOUNDARY FLOW =          96755.66       GW BOUNDARY FLOW =             22.36

   INFLOWS - OUTFLOWS =       -2.4588D+07     INFLOWS - OUTFLOWS =         -15185.52
             --------                                   --------

 TOTAL STORAGE CHANGE =       -2.4573D+07         STORAGE CHANGE =         -15180.94
       --------------                             --------------
         LAND SURFACE =          27624.54           LAND SURFACE =          -7992.89
            SOIL ZONE =        -130300.50              SOIL ZONE =             10.94
     UNSATURATED ZONE =         327936.16       UNSATURATED ZONE =          -1521.08
       SATURATED ZONE =       -2.4798D+07         SATURATED ZONE =          -5677.92

 OVERALL BUDGET ERROR =         -15244.35           BUDGET ERROR =             -4.57


  PERCENT DISCREPANCY =             -0.01    PERCENT DISCREPANCY =             -0.03



1
 SUMMARY VOLUMETRIC BUDGET FOR GSFLOW 
 DATE: 10 29 2000              CUMULATIVE TIME STEP:      29
 MODFLOW STRESS PERIOD    122     CURRENT TIME STEP:    3682     ITERATIONS:      23

 -----------------------------------------------------------------------------------

   CUMULATIVE VOLUMES               L**3   RATES FOR THIS TIME STEP           L**3/T
   ------------------                      ------------------------

                                     IN                                         IN
                                     --                                         --
        PRECIPITATION =        2.4111D+08          PRECIPITATION =          24578.20
           STREAMFLOW =                               STREAMFLOW =                  
     GW BOUNDARY FLOW =          15197.89       GW BOUNDARY FLOW =              6.18


                                    OUT                                        OUT
                                    ---                                        ---
   EVAPOTRANSPIRATION =        1.4409D+08     EVAPOTRANSPIRATION =           1118.82
           STREAMFLOW =        1.2089D+08             STREAMFLOW =           7044.93
     GW BOUNDARY FLOW =          96912.09       GW BOUNDARY FLOW =             22.38

   INFLOWS - OUTFLOWS =       -2.3950D+07     INFLOWS - OUTFLOWS =          16398.25
             --------                                   --------

 TOTAL STORAGE CHANGE =       -2.3934D+07         STORAGE CHANGE =          16398.18
       --------------                             --------------
         LAND SURFACE =         587219.82           LAND SURFACE =          11658.99
            SOIL ZONE =           2236.57              SOIL ZONE =          12321.47
     UNSATURATED ZONE =         317046.11       UNSATURATED ZONE =          -1555.41
       SATURATED ZONE =       -2.4841D+07         SATURATED ZONE =          -6026.87

 OVERALL BUDGET ERROR =         -15262.62           BUDGET ERROR =              0.07


  PERCENT DISCREPANCY =             -0.01    PERCENT DISCREPANCY =              0.00



 Number of time steps:   3684;  Number of non-convergence:   1
 MF iterations:         24597;  SZ iterations:           23287
 Average MF iterations:  6.68;  Average SZ iterations:    6.32
 Maximum MF iterations:   500;  Maximum SZ iterations:      50

mxsziter reached: 10

MF iteration distribution:      0    0   93  397  627 1195  853  294  147   27
                                6    1   11    3    3    4    1    2    0    0
                                0    1    4    1    0    0    0    0    1    0
                                0    0    0    1    0    1    1    0    0    0
                                0    0    0    0    0    0    0    0    0    0
                                0    1    0    0    0    0    0    0    0    0
                                0    0    0    0    0    0    0    0    0    1
                                1    0    1    0    0    0    0    0    0    6

SZ computation distribution:    0    0   93  397  627 1195  853  294  147   27
                                6    1   11    3    3    4    1    2    0    0
                                0    1    4    1    0    0    0    0    1    0
                                0    0    0    1    0    1    1    0    0    0
                                0    0    0    0    0    0    0    0    0   10
                                0    0    0    0    0    0    0    0    0    0
                                0    0    0    0    0    0    0    0    0    0
                                0    0    0    0    0    0    0    0    0    0

