1
 SUMMARY VOLUMETRIC BUDGET FOR GSFLOW 
 DATE: 10 07 1990              CUMULATIVE TIME STEP:       7
 MODFLOW STRESS PERIOD      2     CURRENT TIME STEP:       7     ITERATIONS:       7

 -----------------------------------------------------------------------------------

   CUMULATIVE VOLUMES               L**3   RATES FOR THIS TIME STEP           L**3/T
   ------------------                      ------------------------

                                     IN                                         IN
                                     --                                         --
        PRECIPITATION =                            PRECIPITATION =                  
           STREAMFLOW =                               STREAMFLOW =                  
     GW BOUNDARY FLOW =                         GW BOUNDARY FLOW =                  


                                    OUT                                        OUT
                                    ---                                        ---
   EVAPOTRANSPIRATION =         381242.21     EVAPOTRANSPIRATION =          12556.47
           STREAMFLOW =          46416.71             STREAMFLOW =           8185.43
     GW BOUNDARY FLOW =            252.80       GW BOUNDARY FLOW =             36.30

   INFLOWS - OUTFLOWS =        -427911.73     INFLOWS - OUTFLOWS =         -20778.20
             --------                                   --------

 TOTAL STORAGE CHANGE =        -426450.73         STORAGE CHANGE =         -20749.96
       --------------                             --------------
         LAND SURFACE =                             LAND SURFACE =                  
            SOIL ZONE =         -33344.15              SOIL ZONE =          -1004.88
     UNSATURATED ZONE =        -499598.40       UNSATURATED ZONE =         -34029.42
       SATURATED ZONE =         106491.83         SATURATED ZONE =          14284.34

 OVERALL BUDGET ERROR =          -1460.99           BUDGET ERROR =            -28.24


  PERCENT DISCREPANCY =             -0.34    PERCENT DISCREPANCY =             -0.14



1
 SUMMARY VOLUMETRIC BUDGET FOR GSFLOW 
 DATE: 10 14 1990              CUMULATIVE TIME STEP:      14
 MODFLOW STRESS PERIOD      2     CURRENT TIME STEP:      14     ITERATIONS:       8

 -----------------------------------------------------------------------------------

   CUMULATIVE VOLUMES               L**3   RATES FOR THIS TIME STEP           L**3/T
   ------------------                      ------------------------

                                     IN                                         IN
                                     --                                         --
        PRECIPITATION =                            PRECIPITATION =                  
           STREAMFLOW =                               STREAMFLOW =                  
     GW BOUNDARY FLOW =                         GW BOUNDARY FLOW =                  


                                    OUT                                        OUT
                                    ---                                        ---
   EVAPOTRANSPIRATION =         659586.21     EVAPOTRANSPIRATION =          42743.02
           STREAMFLOW =         100743.84             STREAMFLOW =           7179.45
     GW BOUNDARY FLOW =            506.63       GW BOUNDARY FLOW =             36.23

   INFLOWS - OUTFLOWS =        -760836.68     INFLOWS - OUTFLOWS =         -49958.71
             --------                                   --------

 TOTAL STORAGE CHANGE =        -759085.75         STORAGE CHANGE =         -49936.15
       --------------                             --------------
         LAND SURFACE =                             LAND SURFACE =                  
            SOIL ZONE =         -58148.69              SOIL ZONE =          -4431.08
     UNSATURATED ZONE =        -873588.98       UNSATURATED ZONE =         -52603.32
       SATURATED ZONE =         172651.91         SATURATED ZONE =           7098.26

 OVERALL BUDGET ERROR =          -1750.93           BUDGET ERROR =            -22.56


  PERCENT DISCREPANCY =             -0.23    PERCENT DISCREPANCY =             -0.05



1
 SUMMARY VOLUMETRIC BUDGET FOR GSFLOW 
 DATE: 10 21 1990              CUMULATIVE TIME STEP:      21
 MODFLOW STRESS PERIOD      2     CURRENT TIME STEP:      21     ITERATIONS:       6

 -----------------------------------------------------------------------------------

   CUMULATIVE VOLUMES               L**3   RATES FOR THIS TIME STEP           L**3/T
   ------------------                      ------------------------

                                     IN                                         IN
                                     --                                         --
        PRECIPITATION =         188432.87          PRECIPITATION =                  
           STREAMFLOW =                               STREAMFLOW =                  
     GW BOUNDARY FLOW =                         GW BOUNDARY FLOW =                  


                                    OUT                                        OUT
                                    ---                                        ---
   EVAPOTRANSPIRATION =         802138.63     EVAPOTRANSPIRATION =          37265.41
           STREAMFLOW =         163686.05             STREAMFLOW =          10144.09
     GW BOUNDARY FLOW =            760.82       GW BOUNDARY FLOW =             36.37

   INFLOWS - OUTFLOWS =        -778152.63     INFLOWS - OUTFLOWS =         -47445.87
             --------                                   --------

 TOTAL STORAGE CHANGE =        -777149.58         STORAGE CHANGE =         -47305.20
       --------------                             --------------
         LAND SURFACE =          15977.62           LAND SURFACE =         -34861.64
            SOIL ZONE =          55582.97              SOIL ZONE =          -1273.96
     UNSATURATED ZONE =       -1085701.88       UNSATURATED ZONE =         -21899.49
       SATURATED ZONE =         236991.70         SATURATED ZONE =          10729.90

 OVERALL BUDGET ERROR =          -1003.04           BUDGET ERROR =           -140.67


  PERCENT DISCREPANCY =             -0.10    PERCENT DISCREPANCY =             -0.30



1
 SUMMARY VOLUMETRIC BUDGET FOR GSFLOW 
 DATE: 10 28 1990              CUMULATIVE TIME STEP:      28
 MODFLOW STRESS PERIOD      2     CURRENT TIME STEP:      28     ITERATIONS:       7

 -----------------------------------------------------------------------------------

   CUMULATIVE VOLUMES               L**3   RATES FOR THIS TIME STEP           L**3/T
   ------------------                      ------------------------

                                     IN                                         IN
                                     --                                         --
        PRECIPITATION =         188432.87          PRECIPITATION =                  
           STREAMFLOW =                               STREAMFLOW =                  
     GW BOUNDARY FLOW =                         GW BOUNDARY FLOW =                  


                                    OUT                                        OUT
                                    ---                                        ---
   EVAPOTRANSPIRATION =         927962.35     EVAPOTRANSPIRATION =          11160.86
           STREAMFLOW =         225448.70             STREAMFLOW =           9010.08
     GW BOUNDARY FLOW =           1014.01       GW BOUNDARY FLOW =             36.13

   INFLOWS - OUTFLOWS =        -965992.20     INFLOWS - OUTFLOWS =         -20207.07
             --------                                   --------

 TOTAL STORAGE CHANGE =        -964449.40         STORAGE CHANGE =         -20206.75
       --------------                             --------------
         LAND SURFACE =                             LAND SURFACE =                  
            SOIL ZONE =          26397.57              SOIL ZONE =          -3302.49
     UNSATURATED ZONE =       -1270346.49       UNSATURATED ZONE =         -23186.20
       SATURATED ZONE =         279499.52         SATURATED ZONE =           6281.94

 OVERALL BUDGET ERROR =          -1542.80           BUDGET ERROR =             -0.32


  PERCENT DISCREPANCY =             -0.13    PERCENT DISCREPANCY =             -0.00



1
 SUMMARY VOLUMETRIC BUDGET FOR GSFLOW 
 DATE: 11 04 1990              CUMULATIVE TIME STEP:       4
 MODFLOW STRESS PERIOD      3     CURRENT TIME STEP:      35     ITERATIONS:       6

 -----------------------------------------------------------------------------------

   CUMULATIVE VOLUMES               L**3   RATES FOR THIS TIME STEP           L**3/T
   ------------------                      ------------------------

                                     IN                                         IN
                                     --                                         --
        PRECIPITATION =         703113.06          PRECIPITATION =                  
           STREAMFLOW =                               STREAMFLOW =                  
     GW BOUNDARY FLOW =                         GW BOUNDARY FLOW =                  


                                    OUT                                        OUT
                                    ---                                        ---
   EVAPOTRANSPIRATION =         987707.67     EVAPOTRANSPIRATION =          26159.26
           STREAMFLOW =         296711.38             STREAMFLOW =          10674.48
     GW BOUNDARY FLOW =           1267.08       GW BOUNDARY FLOW =             36.14

   INFLOWS - OUTFLOWS =        -582573.07     INFLOWS - OUTFLOWS =         -36869.88
             --------                                   --------

 TOTAL STORAGE CHANGE =        -584723.33         STORAGE CHANGE =         -37770.70
       --------------                             --------------
         LAND SURFACE =          71009.70           LAND SURFACE =         -84159.07
            SOIL ZONE =         419927.21              SOIL ZONE =          57059.03
     UNSATURATED ZONE =       -1416255.72       UNSATURATED ZONE =         -20123.52
       SATURATED ZONE =         340595.48         SATURATED ZONE =           9452.86

 OVERALL BUDGET ERROR =           2150.26           BUDGET ERROR =            900.82


  PERCENT DISCREPANCY =              0.17    PERCENT DISCREPANCY =              2.41



1
 SUMMARY VOLUMETRIC BUDGET FOR GSFLOW 
 DATE: 11 11 1990              CUMULATIVE TIME STEP:      11
 MODFLOW STRESS PERIOD      3     CURRENT TIME STEP:      42     ITERATIONS:       6

 -----------------------------------------------------------------------------------

   CUMULATIVE VOLUMES               L**3   RATES FOR THIS TIME STEP           L**3/T
   ------------------                      ------------------------

                                     IN                                         IN
                                     --                                         --
        PRECIPITATION =         703113.06          PRECIPITATION =                  
           STREAMFLOW =                               STREAMFLOW =                  
     GW BOUNDARY FLOW =                         GW BOUNDARY FLOW =                  


                                    OUT                                        OUT
                                    ---                                        ---
   EVAPOTRANSPIRATION =        1061439.20     EVAPOTRANSPIRATION =          12406.95
           STREAMFLOW =         367948.54             STREAMFLOW =           9673.27
     GW BOUNDARY FLOW =           1519.19       GW BOUNDARY FLOW =             35.93

   INFLOWS - OUTFLOWS =        -727793.86     INFLOWS - OUTFLOWS =         -22116.15
             --------                                   --------

 TOTAL STORAGE CHANGE =        -729651.96         STORAGE CHANGE =         -22062.81
       --------------                             --------------
         LAND SURFACE =            295.92           LAND SURFACE =           -859.89
            SOIL ZONE =         436201.50              SOIL ZONE =          -6128.89
     UNSATURATED ZONE =       -1556439.31       UNSATURATED ZONE =         -20019.83
       SATURATED ZONE =         390289.94         SATURATED ZONE =           4945.79

 OVERALL BUDGET ERROR =           1858.10           BUDGET ERROR =            -53.35


  PERCENT DISCREPANCY =              0.13    PERCENT DISCREPANCY =             -0.24



1
 SUMMARY VOLUMETRIC BUDGET FOR GSFLOW 
 DATE: 11 18 1990              CUMULATIVE TIME STEP:      18
 MODFLOW STRESS PERIOD      3     CURRENT TIME STEP:      49     ITERATIONS:       6

 -----------------------------------------------------------------------------------

   CUMULATIVE VOLUMES               L**3   RATES FOR THIS TIME STEP           L**3/T
   ------------------                      ------------------------

                                     IN                                         IN
                                     --                                         --
        PRECIPITATION =         747883.35          PRECIPITATION =                  
           STREAMFLOW =                               STREAMFLOW =                  
     GW BOUNDARY FLOW =                         GW BOUNDARY FLOW =                  


                                    OUT                                        OUT
                                    ---                                        ---
   EVAPOTRANSPIRATION =        1131088.58     EVAPOTRANSPIRATION =           5463.40
           STREAMFLOW =         439967.48             STREAMFLOW =          10716.37
     GW BOUNDARY FLOW =           1770.51       GW BOUNDARY FLOW =             35.88

   INFLOWS - OUTFLOWS =        -824943.22     INFLOWS - OUTFLOWS =         -16215.66
             --------                                   --------

 TOTAL STORAGE CHANGE =        -826589.19         STORAGE CHANGE =         -16187.58
       --------------                             --------------
         LAND SURFACE =          10077.61           LAND SURFACE =          -4199.79
            SOIL ZONE =         418281.96              SOIL ZONE =           -685.79
     UNSATURATED ZONE =       -1690329.98       UNSATURATED ZONE =         -18690.24
       SATURATED ZONE =         435381.22         SATURATED ZONE =           7388.23

 OVERALL BUDGET ERROR =           1645.97           BUDGET ERROR =            -28.07


  PERCENT DISCREPANCY =              0.10    PERCENT DISCREPANCY =             -0.17



1
 SUMMARY VOLUMETRIC BUDGET FOR GSFLOW 
 DATE: 11 25 1990              CUMULATIVE TIME STEP:      25
 MODFLOW STRESS PERIOD      3     CURRENT TIME STEP:      56     ITERATIONS:       6

 -----------------------------------------------------------------------------------

   CUMULATIVE VOLUMES               L**3   RATES FOR THIS TIME STEP           L**3/T
   ------------------                      ------------------------

                                     IN                                         IN
                                     --                                         --
        PRECIPITATION =        1009043.38          PRECIPITATION =         186542.88
           STREAMFLOW =                               STREAMFLOW =                  
     GW BOUNDARY FLOW =                         GW BOUNDARY FLOW =                  


                                    OUT                                        OUT
                                    ---                                        ---
   EVAPOTRANSPIRATION =        1192049.31     EVAPOTRANSPIRATION =           3813.04
           STREAMFLOW =         516171.44             STREAMFLOW =          10913.81
     GW BOUNDARY FLOW =           2021.46       GW BOUNDARY FLOW =             35.79

   INFLOWS - OUTFLOWS =        -701198.83     INFLOWS - OUTFLOWS =         171780.23
             --------                                   --------

 TOTAL STORAGE CHANGE =        -704430.87         STORAGE CHANGE =         170222.89
       --------------                             --------------
         LAND SURFACE =          92124.67           LAND SURFACE =          75233.82
            SOIL ZONE =         536595.71              SOIL ZONE =         106576.75
     UNSATURATED ZONE =       -1818423.30       UNSATURATED ZONE =         -17982.49
       SATURATED ZONE =         485272.05         SATURATED ZONE =           6394.81

 OVERALL BUDGET ERROR =           3232.04           BUDGET ERROR =           1557.35


  PERCENT DISCREPANCY =              0.19    PERCENT DISCREPANCY =              0.84



1
 SUMMARY VOLUMETRIC BUDGET FOR GSFLOW 
 DATE: 12 02 1990              CUMULATIVE TIME STEP:       2
 MODFLOW STRESS PERIOD      4     CURRENT TIME STEP:      63     ITERATIONS:       6

 -----------------------------------------------------------------------------------

   CUMULATIVE VOLUMES               L**3   RATES FOR THIS TIME STEP           L**3/T
   ------------------                      ------------------------

                                     IN                                         IN
                                     --                                         --
        PRECIPITATION =        1449284.55          PRECIPITATION =                  
           STREAMFLOW =                               STREAMFLOW =                  
     GW BOUNDARY FLOW =                         GW BOUNDARY FLOW =                  


                                    OUT                                        OUT
                                    ---                                        ---
   EVAPOTRANSPIRATION =        1199646.45     EVAPOTRANSPIRATION =            377.09
           STREAMFLOW =         593608.73             STREAMFLOW =          11102.64
     GW BOUNDARY FLOW =           2271.95       GW BOUNDARY FLOW =             35.77

   INFLOWS - OUTFLOWS =        -346242.57     INFLOWS - OUTFLOWS =         -11515.49
             --------                                   --------

 TOTAL STORAGE CHANGE =        -350222.45         STORAGE CHANGE =         -11515.05
       --------------                             --------------
         LAND SURFACE =         493448.43           LAND SURFACE =           -453.37
            SOIL ZONE =         567505.09              SOIL ZONE =            130.88
     UNSATURATED ZONE =       -1941699.89       UNSATURATED ZONE =         -17317.84
       SATURATED ZONE =         530523.92         SATURATED ZONE =           6125.28

 OVERALL BUDGET ERROR =           3979.88           BUDGET ERROR =             -0.44


  PERCENT DISCREPANCY =              0.22    PERCENT DISCREPANCY =             -0.00



1
 SUMMARY VOLUMETRIC BUDGET FOR GSFLOW 
 DATE: 12 09 1990              CUMULATIVE TIME STEP:       9
 MODFLOW STRESS PERIOD      4     CURRENT TIME STEP:      70     ITERATIONS:       6

 -----------------------------------------------------------------------------------

   CUMULATIVE VOLUMES               L**3   RATES FOR THIS TIME STEP           L**3/T
   ------------------                      ------------------------

                                     IN                                         IN
                                     --                                         --
        PRECIPITATION =        1449284.55          PRECIPITATION =                  
           STREAMFLOW =                               STREAMFLOW =                  
     GW BOUNDARY FLOW =                         GW BOUNDARY FLOW =                  


                                    OUT                                        OUT
                                    ---                                        ---
   EVAPOTRANSPIRATION =        1278495.48     EVAPOTRANSPIRATION =          14224.98
           STREAMFLOW =         671526.32             STREAMFLOW =          10934.50
     GW BOUNDARY FLOW =           2521.92       GW BOUNDARY FLOW =             35.65

   INFLOWS - OUTFLOWS =        -503259.17     INFLOWS - OUTFLOWS =         -25195.12
             --------                                   --------

 TOTAL STORAGE CHANGE =        -510334.32         STORAGE CHANGE =         -25225.88
       --------------                             --------------
         LAND SURFACE =          66382.65           LAND SURFACE =         -46525.52
            SOIL ZONE =         916021.76              SOIL ZONE =          33951.30
     UNSATURATED ZONE =       -2059923.10       UNSATURATED ZONE =         -16537.87
       SATURATED ZONE =         567184.37         SATURATED ZONE =           3886.22

 OVERALL BUDGET ERROR =           7075.15           BUDGET ERROR =             30.76


  PERCENT DISCREPANCY =              0.36    PERCENT DISCREPANCY =              0.12



1
 SUMMARY VOLUMETRIC BUDGET FOR GSFLOW 
 DATE: 12 16 1990              CUMULATIVE TIME STEP:      16
 MODFLOW STRESS PERIOD      4     CURRENT TIME STEP:      77     ITERATIONS:       6

 -----------------------------------------------------------------------------------

   CUMULATIVE VOLUMES               L**3   RATES FOR THIS TIME STEP           L**3/T
   ------------------                      ------------------------

                                     IN                                         IN
                                     --                                         --
        PRECIPITATION =        1804962.84          PRECIPITATION =                  
           STREAMFLOW =                               STREAMFLOW =                  
     GW BOUNDARY FLOW =                         GW BOUNDARY FLOW =                  


                                    OUT                                        OUT
                                    ---                                        ---
   EVAPOTRANSPIRATION =        1307160.50     EVAPOTRANSPIRATION =                  
           STREAMFLOW =         751409.04             STREAMFLOW =          11541.89
     GW BOUNDARY FLOW =           2771.33       GW BOUNDARY FLOW =             35.61

   INFLOWS - OUTFLOWS =        -256378.03     INFLOWS - OUTFLOWS =         -11577.50
             --------                                   --------

 TOTAL STORAGE CHANGE =        -265151.05         STORAGE CHANGE =         -11577.98
       --------------                             --------------
         LAND SURFACE =         256077.35           LAND SURFACE =                  
            SOIL ZONE =        1054340.02              SOIL ZONE =            -14.16
     UNSATURATED ZONE =       -2173641.75       UNSATURATED ZONE =         -15995.35
       SATURATED ZONE =         598073.33         SATURATED ZONE =           4431.54

 OVERALL BUDGET ERROR =           8773.02           BUDGET ERROR =              0.48


  PERCENT DISCREPANCY =              0.42    PERCENT DISCREPANCY =              0.00



1
 SUMMARY VOLUMETRIC BUDGET FOR GSFLOW 
 DATE: 12 23 1990              CUMULATIVE TIME STEP:      23
 MODFLOW STRESS PERIOD      4     CURRENT TIME STEP:      84     ITERATIONS:       6

 -----------------------------------------------------------------------------------

   CUMULATIVE VOLUMES               L**3   RATES FOR THIS TIME STEP           L**3/T
   ------------------                      ------------------------

                                     IN                                         IN
                                     --                                         --
        PRECIPITATION =        2276236.55          PRECIPITATION =                  
           STREAMFLOW =                               STREAMFLOW =                  
     GW BOUNDARY FLOW =              0.08       GW BOUNDARY FLOW =              0.04


                                    OUT                                        OUT
                                    ---                                        ---
   EVAPOTRANSPIRATION =        1308541.46     EVAPOTRANSPIRATION =                  
           STREAMFLOW =         832398.77             STREAMFLOW =          11592.26
     GW BOUNDARY FLOW =           3020.37       GW BOUNDARY FLOW =             35.57

   INFLOWS - OUTFLOWS =         132276.03     INFLOWS - OUTFLOWS =         -11627.79
             --------                                   --------

 TOTAL STORAGE CHANGE =         123509.23         STORAGE CHANGE =         -11627.41
       --------------                             --------------
         LAND SURFACE =         725980.65           LAND SURFACE =                  
            SOIL ZONE =        1054569.11              SOIL ZONE =             60.81
     UNSATURATED ZONE =       -2283157.78       UNSATURATED ZONE =         -15398.52
       SATURATED ZONE =         626117.25         SATURATED ZONE =           3710.29

 OVERALL BUDGET ERROR =           8766.80           BUDGET ERROR =             -0.38


  PERCENT DISCREPANCY =              0.39    PERCENT DISCREPANCY =             -0.00



1
 SUMMARY VOLUMETRIC BUDGET FOR GSFLOW 
 DATE: 12 30 1990              CUMULATIVE TIME STEP:      30
 MODFLOW STRESS PERIOD      4     CURRENT TIME STEP:      91     ITERATIONS:       5

 -----------------------------------------------------------------------------------

   CUMULATIVE VOLUMES               L**3   RATES FOR THIS TIME STEP           L**3/T
   ------------------                      ------------------------

                                     IN                                         IN
                                     --                                         --
        PRECIPITATION =        2276236.55          PRECIPITATION =                  
           STREAMFLOW =                               STREAMFLOW =                  
     GW BOUNDARY FLOW =              0.77       GW BOUNDARY FLOW =              0.14


                                    OUT                                        OUT
                                    ---                                        ---
   EVAPOTRANSPIRATION =        1309298.15     EVAPOTRANSPIRATION =                  
           STREAMFLOW =         913787.40             STREAMFLOW =          11654.54
     GW BOUNDARY FLOW =           3269.49       GW BOUNDARY FLOW =             35.60

   INFLOWS - OUTFLOWS =          49882.28     INFLOWS - OUTFLOWS =         -11690.00
             --------                                   --------

 TOTAL STORAGE CHANGE =          41130.07         STORAGE CHANGE =         -11687.55
       --------------                             --------------
         LAND SURFACE =         725228.16           LAND SURFACE =                  
            SOIL ZONE =        1055182.44              SOIL ZONE =            105.47
     UNSATURATED ZONE =       -2388781.85       UNSATURATED ZONE =         -14856.92
       SATURATED ZONE =         649501.33         SATURATED ZONE =           3063.90

 OVERALL BUDGET ERROR =           8752.21           BUDGET ERROR =             -2.45


  PERCENT DISCREPANCY =              0.39    PERCENT DISCREPANCY =             -0.02



1
 SUMMARY VOLUMETRIC BUDGET FOR GSFLOW 
 DATE: 01 06 1991              CUMULATIVE TIME STEP:       6
 MODFLOW STRESS PERIOD      5     CURRENT TIME STEP:      98     ITERATIONS:       5

 -----------------------------------------------------------------------------------

   CUMULATIVE VOLUMES               L**3   RATES FOR THIS TIME STEP           L**3/T
   ------------------                      ------------------------

                                     IN                                         IN
                                     --                                         --
        PRECIPITATION =        2276236.55          PRECIPITATION =                  
           STREAMFLOW =                               STREAMFLOW =                  
     GW BOUNDARY FLOW =              2.09       GW BOUNDARY FLOW =              0.22


                                    OUT                                        OUT
                                    ---                                        ---
   EVAPOTRANSPIRATION =        1332677.65     EVAPOTRANSPIRATION =           2596.69
           STREAMFLOW =         995783.28             STREAMFLOW =          11751.58
     GW BOUNDARY FLOW =           3519.37       GW BOUNDARY FLOW =             35.75

   INFLOWS - OUTFLOWS =         -55741.66     INFLOWS - OUTFLOWS =         -14383.80
             --------                                   --------

 TOTAL STORAGE CHANGE =         -66214.88         STORAGE CHANGE =         -14462.75
       --------------                             --------------
         LAND SURFACE =         620283.29           LAND SURFACE =          -6112.33
            SOIL ZONE =        1135739.60              SOIL ZONE =           3533.57
     UNSATURATED ZONE =       -2490444.36       UNSATURATED ZONE =         -14286.06
       SATURATED ZONE =         668206.59         SATURATED ZONE =           2402.08

 OVERALL BUDGET ERROR =          10473.22           BUDGET ERROR =             78.95


  PERCENT DISCREPANCY =              0.45    PERCENT DISCREPANCY =              0.55



1
 SUMMARY VOLUMETRIC BUDGET FOR GSFLOW 
 DATE: 01 13 1991              CUMULATIVE TIME STEP:      13
 MODFLOW STRESS PERIOD      5     CURRENT TIME STEP:     105     ITERATIONS:       6

 -----------------------------------------------------------------------------------

   CUMULATIVE VOLUMES               L**3   RATES FOR THIS TIME STEP           L**3/T
   ------------------                      ------------------------

                                     IN                                         IN
                                     --                                         --
        PRECIPITATION =        2596386.94          PRECIPITATION =          10327.43
           STREAMFLOW =                               STREAMFLOW =                  
     GW BOUNDARY FLOW =              4.02       GW BOUNDARY FLOW =              0.31


                                    OUT                                        OUT
                                    ---                                        ---
   EVAPOTRANSPIRATION =        1393368.71     EVAPOTRANSPIRATION =          17349.68
           STREAMFLOW =        1078233.82             STREAMFLOW =          11782.88
     GW BOUNDARY FLOW =           3769.60       GW BOUNDARY FLOW =             35.73

   INFLOWS - OUTFLOWS =         121018.83     INFLOWS - OUTFLOWS =         -18840.55
             --------                                   --------

 TOTAL STORAGE CHANGE =         106827.67         STORAGE CHANGE =         -19928.07
       --------------                             --------------
         LAND SURFACE =         586364.85           LAND SURFACE =        -135127.18
            SOIL ZONE =        1427142.45              SOIL ZONE =         127798.67
     UNSATURATED ZONE =       -2588059.61       UNSATURATED ZONE =         -13752.99
       SATURATED ZONE =         681379.98         SATURATED ZONE =           1153.43

 OVERALL BUDGET ERROR =          14191.16           BUDGET ERROR =           1087.52

  ***WARNING, FLUX RATES OFF > 3%

  PERCENT DISCREPANCY =              0.55    PERCENT DISCREPANCY =              3.66



1
 SUMMARY VOLUMETRIC BUDGET FOR GSFLOW 
 DATE: 01 20 1991              CUMULATIVE TIME STEP:      20
 MODFLOW STRESS PERIOD      5     CURRENT TIME STEP:     112     ITERATIONS:       5

 -----------------------------------------------------------------------------------

   CUMULATIVE VOLUMES               L**3   RATES FOR THIS TIME STEP           L**3/T
   ------------------                      ------------------------

                                     IN                                         IN
                                     --                                         --
        PRECIPITATION =        2596386.94          PRECIPITATION =                  
           STREAMFLOW =                               STREAMFLOW =                  
     GW BOUNDARY FLOW =              6.55       GW BOUNDARY FLOW =              0.40


                                    OUT                                        OUT
                                    ---                                        ---
   EVAPOTRANSPIRATION =        1464361.25     EVAPOTRANSPIRATION =           1903.01
           STREAMFLOW =        1161667.45             STREAMFLOW =          11922.05
     GW BOUNDARY FLOW =           4019.83       GW BOUNDARY FLOW =             35.75

   INFLOWS - OUTFLOWS =         -33655.04     INFLOWS - OUTFLOWS =         -13860.41
             --------                                   --------

 TOTAL STORAGE CHANGE =         -48366.26         STORAGE CHANGE =         -13843.66
       --------------                             --------------
         LAND SURFACE =         422210.58           LAND SURFACE =           -295.67
            SOIL ZONE =        1520239.66              SOIL ZONE =          -1547.32
     UNSATURATED ZONE =       -2681779.99       UNSATURATED ZONE =         -13163.44
       SATURATED ZONE =         690963.50         SATURATED ZONE =           1162.77

 OVERALL BUDGET ERROR =          14711.22           BUDGET ERROR =            -16.75


  PERCENT DISCREPANCY =              0.56    PERCENT DISCREPANCY =             -0.12



1
 SUMMARY VOLUMETRIC BUDGET FOR GSFLOW 
 DATE: 01 27 1991              CUMULATIVE TIME STEP:      27
 MODFLOW STRESS PERIOD      5     CURRENT TIME STEP:     119     ITERATIONS:       5

 -----------------------------------------------------------------------------------

   CUMULATIVE VOLUMES               L**3   RATES FOR THIS TIME STEP           L**3/T
   ------------------                      ------------------------

                                     IN                                         IN
                                     --                                         --
        PRECIPITATION =        2596386.94          PRECIPITATION =                  
           STREAMFLOW =                               STREAMFLOW =                  
     GW BOUNDARY FLOW =              9.65       GW BOUNDARY FLOW =              0.48


                                    OUT                                        OUT
                                    ---                                        ---
   EVAPOTRANSPIRATION =        1486427.06     EVAPOTRANSPIRATION =           1235.79
           STREAMFLOW =        1245093.01             STREAMFLOW =          11937.69
     GW BOUNDARY FLOW =           4270.00       GW BOUNDARY FLOW =             35.74

   INFLOWS - OUTFLOWS =        -139393.47     INFLOWS - OUTFLOWS =         -13208.74
             --------                                   --------

 TOTAL STORAGE CHANGE =        -154258.82         STORAGE CHANGE =         -13199.10
       --------------                             --------------
         LAND SURFACE =         394226.38           LAND SURFACE =           -109.80
            SOIL ZONE =        1526800.98              SOIL ZONE =          -1026.43
     UNSATURATED ZONE =       -2771971.33       UNSATURATED ZONE =         -12666.36
       SATURATED ZONE =         696685.15         SATURATED ZONE =            603.50

 OVERALL BUDGET ERROR =          14865.35           BUDGET ERROR =             -9.65


  PERCENT DISCREPANCY =              0.54    PERCENT DISCREPANCY =             -0.07



1
 SUMMARY VOLUMETRIC BUDGET FOR GSFLOW 
 DATE: 02 03 1991              CUMULATIVE TIME STEP:       3
 MODFLOW STRESS PERIOD      6     CURRENT TIME STEP:     126     ITERATIONS:       7

 -----------------------------------------------------------------------------------

   CUMULATIVE VOLUMES               L**3   RATES FOR THIS TIME STEP           L**3/T
   ------------------                      ------------------------

                                     IN                                         IN
                                     --                                         --
        PRECIPITATION =        3228422.31          PRECIPITATION =          30459.53
           STREAMFLOW =                               STREAMFLOW =                  
     GW BOUNDARY FLOW =             13.31       GW BOUNDARY FLOW =              0.55


                                    OUT                                        OUT
                                    ---                                        ---
   EVAPOTRANSPIRATION =        1588592.75     EVAPOTRANSPIRATION =          20450.25
           STREAMFLOW =        1329071.75             STREAMFLOW =          12157.37
     GW BOUNDARY FLOW =           4520.08       GW BOUNDARY FLOW =             35.73

   INFLOWS - OUTFLOWS =         306251.03     INFLOWS - OUTFLOWS =          -2183.27
             --------                                   --------

 TOTAL STORAGE CHANGE =         285706.10         STORAGE CHANGE =          -2431.15
       --------------                             --------------
         LAND SURFACE =         184727.70           LAND SURFACE =         -28670.24
            SOIL ZONE =        2260836.86              SOIL ZONE =          38310.30
     UNSATURATED ZONE =       -2858949.51       UNSATURATED ZONE =         -12277.60
       SATURATED ZONE =         699091.05         SATURATED ZONE =            206.39

 OVERALL BUDGET ERROR =          20544.93           BUDGET ERROR =            247.88


  PERCENT DISCREPANCY =              0.64    PERCENT DISCREPANCY =              0.76



1
 SUMMARY VOLUMETRIC BUDGET FOR GSFLOW 
 DATE: 02 10 1991              CUMULATIVE TIME STEP:      10
 MODFLOW STRESS PERIOD      6     CURRENT TIME STEP:     133     ITERATIONS:       5

 -----------------------------------------------------------------------------------

   CUMULATIVE VOLUMES               L**3   RATES FOR THIS TIME STEP           L**3/T
   ------------------                      ------------------------

                                     IN                                         IN
                                     --                                         --
        PRECIPITATION =        3510173.01          PRECIPITATION =                  
           STREAMFLOW =                               STREAMFLOW =                  
     GW BOUNDARY FLOW =             17.49       GW BOUNDARY FLOW =              0.63


                                    OUT                                        OUT
                                    ---                                        ---
   EVAPOTRANSPIRATION =        1755842.41     EVAPOTRANSPIRATION =          25849.74
           STREAMFLOW =        1414964.80             STREAMFLOW =          12197.01
     GW BOUNDARY FLOW =           4770.16       GW BOUNDARY FLOW =             35.72

   INFLOWS - OUTFLOWS =         334613.13     INFLOWS - OUTFLOWS =         -38081.85
             --------                                   --------

 TOTAL STORAGE CHANGE =         312143.99         STORAGE CHANGE =         -38034.26
       --------------                             --------------
         LAND SURFACE =          90050.80           LAND SURFACE =         -12330.62
            SOIL ZONE =        2466666.84              SOIL ZONE =         -13526.80
     UNSATURATED ZONE =       -2942498.21       UNSATURATED ZONE =         -11770.61
       SATURATED ZONE =         697924.57         SATURATED ZONE =           -406.24

 OVERALL BUDGET ERROR =          22469.15           BUDGET ERROR =            -47.59


  PERCENT DISCREPANCY =              0.64    PERCENT DISCREPANCY =             -0.13



1
 SUMMARY VOLUMETRIC BUDGET FOR GSFLOW 
 DATE: 02 17 1991              CUMULATIVE TIME STEP:      17
 MODFLOW STRESS PERIOD      6     CURRENT TIME STEP:     140     ITERATIONS:       6

 -----------------------------------------------------------------------------------

   CUMULATIVE VOLUMES               L**3   RATES FOR THIS TIME STEP           L**3/T
   ------------------                      ------------------------

                                     IN                                         IN
                                     --                                         --
        PRECIPITATION =        3510173.01          PRECIPITATION =                  
           STREAMFLOW =                               STREAMFLOW =                  
     GW BOUNDARY FLOW =             22.16       GW BOUNDARY FLOW =              0.70


                                    OUT                                        OUT
                                    ---                                        ---
   EVAPOTRANSPIRATION =        1999029.84     EVAPOTRANSPIRATION =          23196.22
           STREAMFLOW =        1498935.07             STREAMFLOW =          12059.06
     GW BOUNDARY FLOW =           5020.07       GW BOUNDARY FLOW =             35.68

   INFLOWS - OUTFLOWS =           7210.18     INFLOWS - OUTFLOWS =         -35290.26
             --------                                   --------

 TOTAL STORAGE CHANGE =         -15008.81         STORAGE CHANGE =         -35279.42
       --------------                             --------------
         LAND SURFACE =          18163.73           LAND SURFACE =          -1654.25
            SOIL ZONE =        2295282.41              SOIL ZONE =         -21637.03
     UNSATURATED ZONE =       -3022521.03       UNSATURATED ZONE =         -11126.70
       SATURATED ZONE =         694066.08         SATURATED ZONE =           -861.44

 OVERALL BUDGET ERROR =          22218.99           BUDGET ERROR =            -10.84


  PERCENT DISCREPANCY =              0.63    PERCENT DISCREPANCY =             -0.03



1
 SUMMARY VOLUMETRIC BUDGET FOR GSFLOW 
 DATE: 02 24 1991              CUMULATIVE TIME STEP:      24
 MODFLOW STRESS PERIOD      6     CURRENT TIME STEP:     147     ITERATIONS:       5

 -----------------------------------------------------------------------------------

   CUMULATIVE VOLUMES               L**3   RATES FOR THIS TIME STEP           L**3/T
   ------------------                      ------------------------

                                     IN                                         IN
                                     --                                         --
        PRECIPITATION =        3510173.01          PRECIPITATION =                  
           STREAMFLOW =                               STREAMFLOW =                  
     GW BOUNDARY FLOW =             27.30       GW BOUNDARY FLOW =              0.76


                                    OUT                                        OUT
                                    ---                                        ---
   EVAPOTRANSPIRATION =        2214640.30     EVAPOTRANSPIRATION =          21904.40
           STREAMFLOW =        1583092.65             STREAMFLOW =          11955.66
     GW BOUNDARY FLOW =           5268.99       GW BOUNDARY FLOW =             35.48

   INFLOWS - OUTFLOWS =        -292801.62     INFLOWS - OUTFLOWS =         -33894.77
             --------                                   --------

 TOTAL STORAGE CHANGE =        -314882.94         STORAGE CHANGE =         -33875.13
       --------------                             --------------
         LAND SURFACE =           6686.42           LAND SURFACE =           -239.07
            SOIL ZONE =        2091681.45              SOIL ZONE =         -21442.70
     UNSATURATED ZONE =       -3098688.02       UNSATURATED ZONE =         -10713.40
       SATURATED ZONE =         685437.22         SATURATED ZONE =          -1479.96

 OVERALL BUDGET ERROR =          22081.32           BUDGET ERROR =            -19.65


  PERCENT DISCREPANCY =              0.58    PERCENT DISCREPANCY =             -0.06



1
 SUMMARY VOLUMETRIC BUDGET FOR GSFLOW 
 DATE: 03 03 1991              CUMULATIVE TIME STEP:       3
 MODFLOW STRESS PERIOD      7     CURRENT TIME STEP:     154     ITERATIONS:       5

 -----------------------------------------------------------------------------------

   CUMULATIVE VOLUMES               L**3   RATES FOR THIS TIME STEP           L**3/T
   ------------------                      ------------------------

                                     IN                                         IN
                                     --                                         --
        PRECIPITATION =        6220189.63          PRECIPITATION =        1243187.24
           STREAMFLOW =                               STREAMFLOW =                  
     GW BOUNDARY FLOW =             32.91       GW BOUNDARY FLOW =              0.83


                                    OUT                                        OUT
                                    ---                                        ---
   EVAPOTRANSPIRATION =        2366424.45     EVAPOTRANSPIRATION =           7999.26
           STREAMFLOW =        1666475.46             STREAMFLOW =          12161.04
     GW BOUNDARY FLOW =           5516.68       GW BOUNDARY FLOW =             35.33

   INFLOWS - OUTFLOWS =        2181805.95     INFLOWS - OUTFLOWS =        1222992.44
             --------                                   --------

 TOTAL STORAGE CHANGE =        2154884.48         STORAGE CHANGE =        1218046.56
       --------------                             --------------
         LAND SURFACE =        2505892.53           LAND SURFACE =        1046737.06
            SOIL ZONE =        2149569.85              SOIL ZONE =         183914.98
     UNSATURATED ZONE =       -3171853.13       UNSATURATED ZONE =         -10295.68
       SATURATED ZONE =         671275.23         SATURATED ZONE =          -2309.79

 OVERALL BUDGET ERROR =          26921.48           BUDGET ERROR =           4945.87


  PERCENT DISCREPANCY =              0.43    PERCENT DISCREPANCY =              0.40



1
 SUMMARY VOLUMETRIC BUDGET FOR GSFLOW 
 DATE: 03 10 1991              CUMULATIVE TIME STEP:      10
 MODFLOW STRESS PERIOD      7     CURRENT TIME STEP:     161     ITERATIONS:       5

 -----------------------------------------------------------------------------------

   CUMULATIVE VOLUMES               L**3   RATES FOR THIS TIME STEP           L**3/T
   ------------------                      ------------------------

                                     IN                                         IN
                                     --                                         --
        PRECIPITATION =        8746030.42          PRECIPITATION =          32888.55
           STREAMFLOW =                               STREAMFLOW =                  
     GW BOUNDARY FLOW =             38.95       GW BOUNDARY FLOW =              0.89


                                    OUT                                        OUT
                                    ---                                        ---
   EVAPOTRANSPIRATION =        2419269.81     EVAPOTRANSPIRATION =           6928.26
           STREAMFLOW =        1798442.18             STREAMFLOW =          18637.85
     GW BOUNDARY FLOW =           5764.63       GW BOUNDARY FLOW =             35.36

   INFLOWS - OUTFLOWS =        4522592.74     INFLOWS - OUTFLOWS =           7287.97
             --------                                   --------

 TOTAL STORAGE CHANGE =        4468848.81         STORAGE CHANGE =           6670.72
       --------------                             --------------
         LAND SURFACE =        3056677.03           LAND SURFACE =          -5526.40
            SOIL ZONE =        3963675.79              SOIL ZONE =          19048.28
     UNSATURATED ZONE =       -3213907.03       UNSATURATED ZONE =          -5242.15
       SATURATED ZONE =         662403.02         SATURATED ZONE =          -1609.01

 OVERALL BUDGET ERROR =          53743.93           BUDGET ERROR =            617.25


  PERCENT DISCREPANCY =              0.62    PERCENT DISCREPANCY =              1.89



1
 SUMMARY VOLUMETRIC BUDGET FOR GSFLOW 
 DATE: 03 17 1991              CUMULATIVE TIME STEP:      17
 MODFLOW STRESS PERIOD      7     CURRENT TIME STEP:     168     ITERATIONS:       6

 -----------------------------------------------------------------------------------

   CUMULATIVE VOLUMES               L**3   RATES FOR THIS TIME STEP           L**3/T
   ------------------                      ------------------------

                                     IN                                         IN
                                     --                                         --
        PRECIPITATION =        9897129.71          PRECIPITATION =         157865.04
           STREAMFLOW =                               STREAMFLOW =                  
     GW BOUNDARY FLOW =             45.40       GW BOUNDARY FLOW =              0.95


                                    OUT                                        OUT
                                    ---                                        ---
   EVAPOTRANSPIRATION =        2440671.94     EVAPOTRANSPIRATION =           6374.55
           STREAMFLOW =        1920740.43             STREAMFLOW =          16947.00
     GW BOUNDARY FLOW =           6011.42       GW BOUNDARY FLOW =             35.18

   INFLOWS - OUTFLOWS =        5529751.32     INFLOWS - OUTFLOWS =         134509.26
             --------                                   --------

 TOTAL STORAGE CHANGE =        5476644.88         STORAGE CHANGE =         134631.63
       --------------                             --------------
         LAND SURFACE =        4188230.79           LAND SURFACE =         152136.56
            SOIL ZONE =        3889722.32              SOIL ZONE =          -9695.44
     UNSATURATED ZONE =       -3251199.69       UNSATURATED ZONE =          -5559.47
       SATURATED ZONE =         649891.46         SATURATED ZONE =          -2250.02

 OVERALL BUDGET ERROR =          53106.44           BUDGET ERROR =           -122.37


  PERCENT DISCREPANCY =              0.54    PERCENT DISCREPANCY =             -0.08



1
 SUMMARY VOLUMETRIC BUDGET FOR GSFLOW 
 DATE: 03 24 1991              CUMULATIVE TIME STEP:      24
 MODFLOW STRESS PERIOD      7     CURRENT TIME STEP:     175     ITERATIONS:       5

 -----------------------------------------------------------------------------------

   CUMULATIVE VOLUMES               L**3   RATES FOR THIS TIME STEP           L**3/T
   ------------------                      ------------------------

                                     IN                                         IN
                                     --                                         --
        PRECIPITATION =        1.1673D+07          PRECIPITATION =        1230031.83
           STREAMFLOW =                               STREAMFLOW =                  
     GW BOUNDARY FLOW =             52.27       GW BOUNDARY FLOW =              1.00


                                    OUT                                        OUT
                                    ---                                        ---
   EVAPOTRANSPIRATION =        2471537.61     EVAPOTRANSPIRATION =           3626.42
           STREAMFLOW =        2037578.11             STREAMFLOW =          16517.07
     GW BOUNDARY FLOW =           6257.06       GW BOUNDARY FLOW =             35.03

   INFLOWS - OUTFLOWS =        7157791.00     INFLOWS - OUTFLOWS =        1209854.32
             --------                                   --------

 TOTAL STORAGE CHANGE =        7105821.62         STORAGE CHANGE =        1210106.23
       --------------                             --------------
         LAND SURFACE =        5933783.02           LAND SURFACE =        1227482.51
            SOIL ZONE =        3829176.30              SOIL ZONE =          -9186.71
     UNSATURATED ZONE =       -3290417.40       UNSATURATED ZONE =          -5676.44
       SATURATED ZONE =         633279.69         SATURATED ZONE =          -2513.14

 OVERALL BUDGET ERROR =          51969.38           BUDGET ERROR =           -251.90


  PERCENT DISCREPANCY =              0.45    PERCENT DISCREPANCY =             -0.02



1
 SUMMARY VOLUMETRIC BUDGET FOR GSFLOW 
 DATE: 03 31 1991              CUMULATIVE TIME STEP:      31
 MODFLOW STRESS PERIOD      7     CURRENT TIME STEP:     182     ITERATIONS:       5

 -----------------------------------------------------------------------------------

   CUMULATIVE VOLUMES               L**3   RATES FOR THIS TIME STEP           L**3/T
   ------------------                      ------------------------

                                     IN                                         IN
                                     --                                         --
        PRECIPITATION =        1.2495D+07          PRECIPITATION =                  
           STREAMFLOW =                               STREAMFLOW =                  
     GW BOUNDARY FLOW =             59.52       GW BOUNDARY FLOW =              1.06


                                    OUT                                        OUT
                                    ---                                        ---
   EVAPOTRANSPIRATION =        2578450.58     EVAPOTRANSPIRATION =          43836.09
           STREAMFLOW =        2155970.42             STREAMFLOW =          19259.22
     GW BOUNDARY FLOW =           6501.80       GW BOUNDARY FLOW =             34.96

   INFLOWS - OUTFLOWS =        7754462.00     INFLOWS - OUTFLOWS =         -63129.22
             --------                                   --------

 TOTAL STORAGE CHANGE =        7701915.78         STORAGE CHANGE =         -64408.93
       --------------                             --------------
         LAND SURFACE =        6553217.20           LAND SURFACE =        -112248.22
            SOIL ZONE =        3863352.75              SOIL ZONE =          55808.83
     UNSATURATED ZONE =       -3328912.07       UNSATURATED ZONE =          -4967.28
       SATURATED ZONE =         614257.90         SATURATED ZONE =          -3002.26

 OVERALL BUDGET ERROR =          52546.23           BUDGET ERROR =           1279.72


  PERCENT DISCREPANCY =              0.42    PERCENT DISCREPANCY =              2.01



1
 SUMMARY VOLUMETRIC BUDGET FOR GSFLOW 
 DATE: 04 07 1991              CUMULATIVE TIME STEP:       7
 MODFLOW STRESS PERIOD      8     CURRENT TIME STEP:     189     ITERATIONS:       7

 -----------------------------------------------------------------------------------

   CUMULATIVE VOLUMES               L**3   RATES FOR THIS TIME STEP           L**3/T
   ------------------                      ------------------------

                                     IN                                         IN
                                     --                                         --
        PRECIPITATION =        1.3018D+07          PRECIPITATION =                  
           STREAMFLOW =                               STREAMFLOW =                  
     GW BOUNDARY FLOW =             67.15       GW BOUNDARY FLOW =              1.11


                                    OUT                                        OUT
                                    ---                                        ---
   EVAPOTRANSPIRATION =        2862032.96     EVAPOTRANSPIRATION =          13609.13
           STREAMFLOW =        2424422.33             STREAMFLOW =          54086.00
     GW BOUNDARY FLOW =           6748.44       GW BOUNDARY FLOW =             35.47

   INFLOWS - OUTFLOWS =        7724600.15     INFLOWS - OUTFLOWS =         -67729.49
             --------                                   --------

 TOTAL STORAGE CHANGE =        7659602.35         STORAGE CHANGE =         -65597.04
       --------------                             --------------
         LAND SURFACE =        5033071.34           LAND SURFACE =         -59134.98
            SOIL ZONE =        5353525.26              SOIL ZONE =         -11076.05
     UNSATURATED ZONE =       -3324426.27       UNSATURATED ZONE =           6705.41
       SATURATED ZONE =         597432.02         SATURATED ZONE =          -2091.42

 OVERALL BUDGET ERROR =          64997.80           BUDGET ERROR =          -2132.46

  ***WARNING, FLUX RATES OFF > 3%

  PERCENT DISCREPANCY =              0.50    PERCENT DISCREPANCY =             -3.20



1
 SUMMARY VOLUMETRIC BUDGET FOR GSFLOW 
 DATE: 04 14 1991              CUMULATIVE TIME STEP:      14
 MODFLOW STRESS PERIOD      8     CURRENT TIME STEP:     196     ITERATIONS:       7

 -----------------------------------------------------------------------------------

   CUMULATIVE VOLUMES               L**3   RATES FOR THIS TIME STEP           L**3/T
   ------------------                      ------------------------

                                     IN                                         IN
                                     --                                         --
        PRECIPITATION =        1.3018D+07          PRECIPITATION =                  
           STREAMFLOW =                               STREAMFLOW =                  
     GW BOUNDARY FLOW =             75.10       GW BOUNDARY FLOW =              1.16


                                    OUT                                        OUT
                                    ---                                        ---
   EVAPOTRANSPIRATION =        3032189.55     EVAPOTRANSPIRATION =          38933.84
           STREAMFLOW =        2857438.99             STREAMFLOW =          67600.73
     GW BOUNDARY FLOW =           6996.93       GW BOUNDARY FLOW =             35.52

   INFLOWS - OUTFLOWS =        7121186.37     INFLOWS - OUTFLOWS =        -106568.94
             --------                                   --------

 TOTAL STORAGE CHANGE =        7082148.72         STORAGE CHANGE =        -103009.57
       --------------                             --------------
         LAND SURFACE =        4428670.43           LAND SURFACE =        -170838.53
            SOIL ZONE =        5346492.64              SOIL ZONE =          63287.90
     UNSATURATED ZONE =       -3277295.88       UNSATURATED ZONE =           6479.42
       SATURATED ZONE =         584281.53         SATURATED ZONE =          -1938.36

 OVERALL BUDGET ERROR =          39037.65           BUDGET ERROR =          -3559.37

  ***WARNING, FLUX RATES OFF > 3%

  PERCENT DISCREPANCY =              0.30    PERCENT DISCREPANCY =             -3.40



1
 SUMMARY VOLUMETRIC BUDGET FOR GSFLOW 
 DATE: 04 21 1991              CUMULATIVE TIME STEP:      21
 MODFLOW STRESS PERIOD      8     CURRENT TIME STEP:     203     ITERATIONS:       7

 -----------------------------------------------------------------------------------

   CUMULATIVE VOLUMES               L**3   RATES FOR THIS TIME STEP           L**3/T
   ------------------                      ------------------------

                                     IN                                         IN
                                     --                                         --
        PRECIPITATION =        1.3034D+07          PRECIPITATION =                  
           STREAMFLOW =                               STREAMFLOW =                  
     GW BOUNDARY FLOW =             83.36       GW BOUNDARY FLOW =              1.20


                                    OUT                                        OUT
                                    ---                                        ---
   EVAPOTRANSPIRATION =        3264024.28     EVAPOTRANSPIRATION =          43519.38
           STREAMFLOW =        3391556.24             STREAMFLOW =          90156.39
     GW BOUNDARY FLOW =           7245.94       GW BOUNDARY FLOW =             35.71

   INFLOWS - OUTFLOWS =        6371319.00     INFLOWS - OUTFLOWS =        -133710.28
             --------                                   --------

 TOTAL STORAGE CHANGE =        6369336.32         STORAGE CHANGE =        -127219.62
       --------------                             --------------
         LAND SURFACE =        3288381.96           LAND SURFACE =        -224119.74
            SOIL ZONE =        5733517.09              SOIL ZONE =          88949.49
     UNSATURATED ZONE =       -3225507.71       UNSATURATED ZONE =           9397.92
       SATURATED ZONE =         572944.97         SATURATED ZONE =          -1447.28

 OVERALL BUDGET ERROR =           1982.68           BUDGET ERROR =          -6490.66

  ***WARNING, FLUX RATES OFF > 3%

  PERCENT DISCREPANCY =              0.02    PERCENT DISCREPANCY =             -4.97



1
 SUMMARY VOLUMETRIC BUDGET FOR GSFLOW 
 DATE: 04 28 1991              CUMULATIVE TIME STEP:      28
 MODFLOW STRESS PERIOD      8     CURRENT TIME STEP:     210     ITERATIONS:       7

 -----------------------------------------------------------------------------------

   CUMULATIVE VOLUMES               L**3   RATES FOR THIS TIME STEP           L**3/T
   ------------------                      ------------------------

                                     IN                                         IN
                                     --                                         --
        PRECIPITATION =        1.3303D+07          PRECIPITATION =                  
           STREAMFLOW =                               STREAMFLOW =                  
     GW BOUNDARY FLOW =             91.88       GW BOUNDARY FLOW =              1.23


                                    OUT                                        OUT
                                    ---                                        ---
   EVAPOTRANSPIRATION =        3511330.95     EVAPOTRANSPIRATION =          55471.29
           STREAMFLOW =        4064000.76             STREAMFLOW =          97928.41
     GW BOUNDARY FLOW =           7495.97       GW BOUNDARY FLOW =             35.70

   INFLOWS - OUTFLOWS =        5720694.70     INFLOWS - OUTFLOWS =        -153434.17
             --------                                   --------

 TOTAL STORAGE CHANGE =        5776155.80         STORAGE CHANGE =        -144333.53
       --------------                             --------------
         LAND SURFACE =        2542972.45           LAND SURFACE =        -158428.10
            SOIL ZONE =        5822751.50              SOIL ZONE =           5257.86
     UNSATURATED ZONE =       -3155511.68       UNSATURATED ZONE =           9736.76
       SATURATED ZONE =         565943.53         SATURATED ZONE =           -900.06

 OVERALL BUDGET ERROR =         -55461.10           BUDGET ERROR =          -9100.63

  ***WARNING, FLUX RATES OFF > 3%

  PERCENT DISCREPANCY =             -0.42    PERCENT DISCREPANCY =             -6.11



1
 SUMMARY VOLUMETRIC BUDGET FOR GSFLOW 
 DATE: 05 05 1991              CUMULATIVE TIME STEP:       5
 MODFLOW STRESS PERIOD      9     CURRENT TIME STEP:     217     ITERATIONS:      81

 -----------------------------------------------------------------------------------

   CUMULATIVE VOLUMES               L**3   RATES FOR THIS TIME STEP           L**3/T
   ------------------                      ------------------------

                                     IN                                         IN
                                     --                                         --
        PRECIPITATION =        1.3510D+07          PRECIPITATION =                  
           STREAMFLOW =                               STREAMFLOW =                  
     GW BOUNDARY FLOW =            100.67       GW BOUNDARY FLOW =              1.27


                                    OUT                                        OUT
                                    ---                                        ---
   EVAPOTRANSPIRATION =        3861277.34     EVAPOTRANSPIRATION =          85089.73
           STREAMFLOW =        4718132.04             STREAMFLOW =          97684.97
     GW BOUNDARY FLOW =           7745.00       GW BOUNDARY FLOW =             35.56

   INFLOWS - OUTFLOWS =        4922654.42     INFLOWS - OUTFLOWS =        -182808.99
             --------                                   --------

 TOTAL STORAGE CHANGE =        5040877.57         STORAGE CHANGE =        -173352.56
       --------------                             --------------
         LAND SURFACE =        1737575.88           LAND SURFACE =        -184922.32
            SOIL ZONE =        5834757.84              SOIL ZONE =           2914.21
     UNSATURATED ZONE =       -3090417.41       UNSATURATED ZONE =           8378.45
       SATURATED ZONE =         558961.25         SATURATED ZONE =            277.11

 OVERALL BUDGET ERROR =        -118223.15           BUDGET ERROR =          -9456.43

  ***WARNING, FLUX RATES OFF > 3%

  PERCENT DISCREPANCY =             -0.87    PERCENT DISCREPANCY =             -5.31



1
 SUMMARY VOLUMETRIC BUDGET FOR GSFLOW 
 DATE: 05 12 1991              CUMULATIVE TIME STEP:      12
 MODFLOW STRESS PERIOD      9     CURRENT TIME STEP:     224     ITERATIONS:       6

 -----------------------------------------------------------------------------------

   CUMULATIVE VOLUMES               L**3   RATES FOR THIS TIME STEP           L**3/T
   ------------------                      ------------------------

                                     IN                                         IN
                                     --                                         --
        PRECIPITATION =        1.4029D+07          PRECIPITATION =                  
           STREAMFLOW =                               STREAMFLOW =                  
     GW BOUNDARY FLOW =            109.71       GW BOUNDARY FLOW =              1.31


                                    OUT                                        OUT
                                    ---                                        ---
   EVAPOTRANSPIRATION =        4231455.19     EVAPOTRANSPIRATION =          62812.25
           STREAMFLOW =        5368871.96             STREAMFLOW =          97142.59
     GW BOUNDARY FLOW =           7992.79       GW BOUNDARY FLOW =             35.37

   INFLOWS - OUTFLOWS =        4421011.92     INFLOWS - OUTFLOWS =        -159988.90
             --------                                   --------

 TOTAL STORAGE CHANGE =        4599493.92         STORAGE CHANGE =        -150859.36
       --------------                             --------------
         LAND SURFACE =        1228262.74           LAND SURFACE =        -215603.20
            SOIL ZONE =        5844249.13              SOIL ZONE =          56667.73
     UNSATURATED ZONE =       -3024054.88       UNSATURATED ZONE =           9219.00
       SATURATED ZONE =         551036.94         SATURATED ZONE =          -1142.89

 OVERALL BUDGET ERROR =        -178482.00           BUDGET ERROR =          -9129.54

  ***WARNING, FLUX RATES OFF > 3%

  PERCENT DISCREPANCY =             -1.26    PERCENT DISCREPANCY =             -5.87



1
 SUMMARY VOLUMETRIC BUDGET FOR GSFLOW 
 DATE: 05 19 1991              CUMULATIVE TIME STEP:      19
 MODFLOW STRESS PERIOD      9     CURRENT TIME STEP:     231     ITERATIONS:       6

 -----------------------------------------------------------------------------------

   CUMULATIVE VOLUMES               L**3   RATES FOR THIS TIME STEP           L**3/T
   ------------------                      ------------------------

                                     IN                                         IN
                                     --                                         --
        PRECIPITATION =        1.4365D+07          PRECIPITATION =                  
           STREAMFLOW =                               STREAMFLOW =                  
     GW BOUNDARY FLOW =            119.01       GW BOUNDARY FLOW =              1.34


                                    OUT                                        OUT
                                    ---                                        ---
   EVAPOTRANSPIRATION =        4631833.95     EVAPOTRANSPIRATION =          18047.46
           STREAMFLOW =        5981069.25             STREAMFLOW =          77714.48
     GW BOUNDARY FLOW =           8238.90       GW BOUNDARY FLOW =             34.96

   INFLOWS - OUTFLOWS =        3744355.22     INFLOWS - OUTFLOWS =         -95795.55
             --------                                   --------

 TOTAL STORAGE CHANGE =        3979054.93         STORAGE CHANGE =         -88029.60
       --------------                             --------------
         LAND SURFACE =         710055.96           LAND SURFACE =         -20899.31
            SOIL ZONE =        5690603.17              SOIL ZONE =         -73244.33
     UNSATURATED ZONE =       -2963225.66       UNSATURATED ZONE =           7654.79
       SATURATED ZONE =         541621.46         SATURATED ZONE =          -1540.75

 OVERALL BUDGET ERROR =        -234699.72           BUDGET ERROR =          -7765.95

  ***WARNING, FLUX RATES OFF > 3%

  PERCENT DISCREPANCY =             -1.62    PERCENT DISCREPANCY =             -8.45



1
 SUMMARY VOLUMETRIC BUDGET FOR GSFLOW 
 DATE: 05 26 1991              CUMULATIVE TIME STEP:      26
 MODFLOW STRESS PERIOD      9     CURRENT TIME STEP:     238     ITERATIONS:       7

 -----------------------------------------------------------------------------------

   CUMULATIVE VOLUMES               L**3   RATES FOR THIS TIME STEP           L**3/T
   ------------------                      ------------------------

                                     IN                                         IN
                                     --                                         --
        PRECIPITATION =        1.4426D+07          PRECIPITATION =                  
           STREAMFLOW =                               STREAMFLOW =                  
     GW BOUNDARY FLOW =            128.57       GW BOUNDARY FLOW =              1.38


                                    OUT                                        OUT
                                    ---                                        ---
   EVAPOTRANSPIRATION =        5279428.59     EVAPOTRANSPIRATION =          71057.00
           STREAMFLOW =        6452467.67             STREAMFLOW =          51987.58
     GW BOUNDARY FLOW =           8481.98       GW BOUNDARY FLOW =             34.43

   INFLOWS - OUTFLOWS =        2686247.93     INFLOWS - OUTFLOWS =        -123077.63
             --------                                   --------

 TOTAL STORAGE CHANGE =        2962637.39         STORAGE CHANGE =        -118743.83
       --------------                             --------------
         LAND SURFACE =         283723.71           LAND SURFACE =         -27810.11
            SOIL ZONE =        5072177.38              SOIL ZONE =         -91997.86
     UNSATURATED ZONE =       -2923687.28       UNSATURATED ZONE =           2887.40
       SATURATED ZONE =         530423.58         SATURATED ZONE =          -1823.25

 OVERALL BUDGET ERROR =        -276389.46           BUDGET ERROR =          -4333.80

  ***WARNING, FLUX RATES OFF > 3%

  PERCENT DISCREPANCY =             -1.90    PERCENT DISCREPANCY =             -3.58



1
 SUMMARY VOLUMETRIC BUDGET FOR GSFLOW 
 DATE: 06 02 1991              CUMULATIVE TIME STEP:       2
 MODFLOW STRESS PERIOD     10     CURRENT TIME STEP:     245     ITERATIONS:       6

 -----------------------------------------------------------------------------------

   CUMULATIVE VOLUMES               L**3   RATES FOR THIS TIME STEP           L**3/T
   ------------------                      ------------------------

                                     IN                                         IN
                                     --                                         --
        PRECIPITATION =        1.4671D+07          PRECIPITATION =                  
           STREAMFLOW =                               STREAMFLOW =                  
     GW BOUNDARY FLOW =            138.42       GW BOUNDARY FLOW =              1.42


                                    OUT                                        OUT
                                    ---                                        ---
   EVAPOTRANSPIRATION =        5824564.95     EVAPOTRANSPIRATION =         119143.96
           STREAMFLOW =        6770157.88             STREAMFLOW =          40120.91
     GW BOUNDARY FLOW =           8721.64       GW BOUNDARY FLOW =             34.08

   INFLOWS - OUTFLOWS =        2067668.75     INFLOWS - OUTFLOWS =        -159297.52
             --------                                   --------

 TOTAL STORAGE CHANGE =        2366765.54         STORAGE CHANGE =        -156336.79
       --------------                             --------------
         LAND SURFACE =         133141.95           LAND SURFACE =         -21748.77
            SOIL ZONE =        4633273.56              SOIL ZONE =        -132551.82
     UNSATURATED ZONE =       -2915149.93       UNSATURATED ZONE =            312.42
       SATURATED ZONE =         515499.97         SATURATED ZONE =          -2348.62

 OVERALL BUDGET ERROR =        -299096.79           BUDGET ERROR =          -2960.73


  PERCENT DISCREPANCY =             -2.02    PERCENT DISCREPANCY =             -1.88



1
 SUMMARY VOLUMETRIC BUDGET FOR GSFLOW 
 DATE: 06 09 1991              CUMULATIVE TIME STEP:       9
 MODFLOW STRESS PERIOD     10     CURRENT TIME STEP:     252     ITERATIONS:      22

 -----------------------------------------------------------------------------------

   CUMULATIVE VOLUMES               L**3   RATES FOR THIS TIME STEP           L**3/T
   ------------------                      ------------------------

                                     IN                                         IN
                                     --                                         --
        PRECIPITATION =        1.4671D+07          PRECIPITATION =                  
           STREAMFLOW =                               STREAMFLOW =                  
     GW BOUNDARY FLOW =            148.57       GW BOUNDARY FLOW =              1.47


                                    OUT                                        OUT
                                    ---                                        ---
   EVAPOTRANSPIRATION =        6542119.84     EVAPOTRANSPIRATION =         166882.13
           STREAMFLOW =        6898106.80             STREAMFLOW =           9974.42
     GW BOUNDARY FLOW =           8956.59       GW BOUNDARY FLOW =             33.31

   INFLOWS - OUTFLOWS =        1221940.14     INFLOWS - OUTFLOWS =        -176888.38
             --------                                   --------

 TOTAL STORAGE CHANGE =        1427594.70         STORAGE CHANGE =        -194077.56
       --------------                             --------------
         LAND SURFACE =          42792.54           LAND SURFACE =         -14518.27
            SOIL ZONE =        3837129.00              SOIL ZONE =        -169014.75
     UNSATURATED ZONE =       -2927457.85       UNSATURATED ZONE =          -3229.58
       SATURATED ZONE =         475131.01         SATURATED ZONE =          -7314.95

 OVERALL BUDGET ERROR =        -205654.56           BUDGET ERROR =          17189.17

  ***WARNING, FLUX RATES OFF > 3%

  PERCENT DISCREPANCY =             -1.39    PERCENT DISCREPANCY =              9.27



1
 SUMMARY VOLUMETRIC BUDGET FOR GSFLOW 
 DATE: 06 16 1991              CUMULATIVE TIME STEP:      16
 MODFLOW STRESS PERIOD     10     CURRENT TIME STEP:     259     ITERATIONS:       6

 -----------------------------------------------------------------------------------

   CUMULATIVE VOLUMES               L**3   RATES FOR THIS TIME STEP           L**3/T
   ------------------                      ------------------------

                                     IN                                         IN
                                     --                                         --
        PRECIPITATION =        1.4671D+07          PRECIPITATION =                  
           STREAMFLOW =                               STREAMFLOW =                  
     GW BOUNDARY FLOW =            159.04       GW BOUNDARY FLOW =              1.51


                                    OUT                                        OUT
                                    ---                                        ---
   EVAPOTRANSPIRATION =        7502492.02     EVAPOTRANSPIRATION =         108724.00
           STREAMFLOW =        6983436.11             STREAMFLOW =          16441.26
     GW BOUNDARY FLOW =           9188.16       GW BOUNDARY FLOW =             33.12

   INFLOWS - OUTFLOWS =         176017.55     INFLOWS - OUTFLOWS =        -125196.88
             --------                                   --------

 TOTAL STORAGE CHANGE =         333321.20         STORAGE CHANGE =        -122165.05
       --------------                             --------------
         LAND SURFACE =           5456.07           LAND SURFACE =          -1579.06
            SOIL ZONE =        2874936.13              SOIL ZONE =        -105545.23
     UNSATURATED ZONE =       -2979780.09       UNSATURATED ZONE =         -11155.58
       SATURATED ZONE =         432709.09         SATURATED ZONE =          -3885.18

 OVERALL BUDGET ERROR =        -157303.64           BUDGET ERROR =          -3031.83


  PERCENT DISCREPANCY =             -1.07    PERCENT DISCREPANCY =             -2.45



1
 SUMMARY VOLUMETRIC BUDGET FOR GSFLOW 
 DATE: 06 23 1991              CUMULATIVE TIME STEP:      23
 MODFLOW STRESS PERIOD     10     CURRENT TIME STEP:     266     ITERATIONS:       6

 -----------------------------------------------------------------------------------

   CUMULATIVE VOLUMES               L**3   RATES FOR THIS TIME STEP           L**3/T
   ------------------                      ------------------------

                                     IN                                         IN
                                     --                                         --
        PRECIPITATION =        1.4671D+07          PRECIPITATION =                  
           STREAMFLOW =                               STREAMFLOW =                  
     GW BOUNDARY FLOW =            169.82       GW BOUNDARY FLOW =              1.56


                                    OUT                                        OUT
                                    ---                                        ---
   EVAPOTRANSPIRATION =        7981810.95     EVAPOTRANSPIRATION =          34329.26
           STREAMFLOW =        7054482.63             STREAMFLOW =          13769.12
     GW BOUNDARY FLOW =           9418.37       GW BOUNDARY FLOW =             32.96

   INFLOWS - OUTFLOWS =        -374567.33     INFLOWS - OUTFLOWS =         -48129.78
             --------                                   --------

 TOTAL STORAGE CHANGE =        -248277.89         STORAGE CHANGE =         -47264.93
       --------------                             --------------
         LAND SURFACE =           1456.34           LAND SURFACE =           -205.23
            SOIL ZONE =        2424846.58              SOIL ZONE =         -32724.77
     UNSATURATED ZONE =       -3060357.64       UNSATURATED ZONE =          -9509.94
       SATURATED ZONE =         385776.83         SATURATED ZONE =          -4824.99

 OVERALL BUDGET ERROR =        -126289.44           BUDGET ERROR =           -864.85


  PERCENT DISCREPANCY =             -0.84    PERCENT DISCREPANCY =             -1.81



1
 SUMMARY VOLUMETRIC BUDGET FOR GSFLOW 
 DATE: 06 30 1991              CUMULATIVE TIME STEP:      30
 MODFLOW STRESS PERIOD     10     CURRENT TIME STEP:     273     ITERATIONS:       6

[...]
                                    ---                                        ---
   EVAPOTRANSPIRATION =        1.4044D+08     EVAPOTRANSPIRATION =          13477.69
           STREAMFLOW =        1.2963D+08             STREAMFLOW =           2589.72
     GW BOUNDARY FLOW =          94884.79       GW BOUNDARY FLOW =             21.75

   INFLOWS - OUTFLOWS =       -3.0151D+07     INFLOWS - OUTFLOWS =         -16082.95
             --------                                   --------

 TOTAL STORAGE CHANGE =       -2.4229D+07         STORAGE CHANGE =         -15992.47
       --------------                             --------------
         LAND SURFACE =                             LAND SURFACE =                  
            SOIL ZONE =        -269972.78              SOIL ZONE =          -2470.50
     UNSATURATED ZONE =         341509.14       UNSATURATED ZONE =          -1520.15
       SATURATED ZONE =       -2.4301D+07         SATURATED ZONE =         -12001.82

 OVERALL BUDGET ERROR =       -5921060.77           BUDGET ERROR =            -90.48


  PERCENT DISCREPANCY =             -2.22    PERCENT DISCREPANCY =             -0.56



1
 SUMMARY VOLUMETRIC BUDGET FOR GSFLOW 
 DATE: 09 03 2000              CUMULATIVE TIME STEP:       3
 MODFLOW STRESS PERIOD    121     CURRENT TIME STEP:    3626     ITERATIONS:       9

 -----------------------------------------------------------------------------------

   CUMULATIVE VOLUMES               L**3   RATES FOR THIS TIME STEP           L**3/T
   ------------------                      ------------------------

                                     IN                                         IN
                                     --                                         --
        PRECIPITATION =        2.4013D+08          PRECIPITATION =                  
           STREAMFLOW =                               STREAMFLOW =                  
     GW BOUNDARY FLOW =          15338.00       GW BOUNDARY FLOW =              6.21


                                    OUT                                        OUT
                                    ---                                        ---
   EVAPOTRANSPIRATION =        1.4052D+08     EVAPOTRANSPIRATION =          28801.82
           STREAMFLOW =        1.2966D+08             STREAMFLOW =           6203.80
     GW BOUNDARY FLOW =          95038.50       GW BOUNDARY FLOW =             22.21

   INFLOWS - OUTFLOWS =       -3.0126D+07     INFLOWS - OUTFLOWS =         -35021.63
             --------                                   --------

 TOTAL STORAGE CHANGE =       -2.4205D+07         STORAGE CHANGE =         -34876.51
       --------------                             --------------
         LAND SURFACE =          24011.12           LAND SURFACE =         -28550.39
            SOIL ZONE =        -200092.88              SOIL ZONE =           -106.99
     UNSATURATED ZONE =         330308.03       UNSATURATED ZONE =          -2322.10
       SATURATED ZONE =       -2.4359D+07         SATURATED ZONE =          -3897.03

 OVERALL BUDGET ERROR =       -5920886.34           BUDGET ERROR =           -145.12


  PERCENT DISCREPANCY =             -2.21    PERCENT DISCREPANCY =             -0.42



1
 SUMMARY VOLUMETRIC BUDGET FOR GSFLOW 
 DATE: 09 10 2000              CUMULATIVE TIME STEP:      10
 MODFLOW STRESS PERIOD    121     CURRENT TIME STEP:    3633     ITERATIONS:     500

 -----------------------------------------------------------------------------------

   CUMULATIVE VOLUMES               L**3   RATES FOR THIS TIME STEP           L**3/T
   ------------------                      ------------------------

                                     IN                                         IN
                                     --                                         --
        PRECIPITATION =        2.4013D+08          PRECIPITATION =                  
           STREAMFLOW =                               STREAMFLOW =                  
     GW BOUNDARY FLOW =          15381.51       GW BOUNDARY FLOW =              6.22


                                    OUT                                        OUT
                                    ---                                        ---
   EVAPOTRANSPIRATION =        1.4060D+08     EVAPOTRANSPIRATION =           8759.16
           STREAMFLOW =        1.2969D+08             STREAMFLOW =           4210.56
     GW BOUNDARY FLOW =          95192.61       GW BOUNDARY FLOW =             21.99

   INFLOWS - OUTFLOWS =       -3.0239D+07     INFLOWS - OUTFLOWS =         -12985.48
             --------                                   --------

 TOTAL STORAGE CHANGE =       -2.4317D+07         STORAGE CHANGE =         -12925.12
       --------------                             --------------
         LAND SURFACE =                             LAND SURFACE =                  
            SOIL ZONE =        -216933.97              SOIL ZONE =          -2515.16
     UNSATURATED ZONE =         319931.97       UNSATURATED ZONE =          -1408.25
       SATURATED ZONE =       -2.4420D+07         SATURATED ZONE =          -9001.71

 OVERALL BUDGET ERROR =       -5921766.58           BUDGET ERROR =            -60.37


  PERCENT DISCREPANCY =             -2.21    PERCENT DISCREPANCY =             -0.47



1
 SUMMARY VOLUMETRIC BUDGET FOR GSFLOW 
 DATE: 09 17 2000              CUMULATIVE TIME STEP:      17
 MODFLOW STRESS PERIOD    121     CURRENT TIME STEP:    3640     ITERATIONS:      13

 -----------------------------------------------------------------------------------

   CUMULATIVE VOLUMES               L**3   RATES FOR THIS TIME STEP           L**3/T
   ------------------                      ------------------------

                                     IN                                         IN
                                     --                                         --
        PRECIPITATION =        2.4013D+08          PRECIPITATION =                  
           STREAMFLOW =                               STREAMFLOW =                  
     GW BOUNDARY FLOW =          15425.08       GW BOUNDARY FLOW =              6.23


                                    OUT                                        OUT
                                    ---                                        ---
   EVAPOTRANSPIRATION =        1.4067D+08     EVAPOTRANSPIRATION =           9959.06
           STREAMFLOW =        1.2972D+08             STREAMFLOW =           3950.92
     GW BOUNDARY FLOW =          95346.10       GW BOUNDARY FLOW =             21.94

   INFLOWS - OUTFLOWS =       -3.0340D+07     INFLOWS - OUTFLOWS =         -13925.70
             --------                                   --------

 TOTAL STORAGE CHANGE =       -2.4418D+07         STORAGE CHANGE =         -13852.86
       --------------                             --------------
         LAND SURFACE =                             LAND SURFACE =                  
            SOIL ZONE =        -236666.78              SOIL ZONE =          -2459.26
     UNSATURATED ZONE =         306556.20       UNSATURATED ZONE =          -2174.82
       SATURATED ZONE =       -2.4488D+07         SATURATED ZONE =          -9218.78

 OVERALL BUDGET ERROR =       -5922285.29           BUDGET ERROR =            -72.83


  PERCENT DISCREPANCY =             -2.21    PERCENT DISCREPANCY =             -0.52



1
 SUMMARY VOLUMETRIC BUDGET FOR GSFLOW 
 DATE: 09 24 2000              CUMULATIVE TIME STEP:      24
 MODFLOW STRESS PERIOD    121     CURRENT TIME STEP:    3647     ITERATIONS:       5

 -----------------------------------------------------------------------------------

   CUMULATIVE VOLUMES               L**3   RATES FOR THIS TIME STEP           L**3/T
   ------------------                      ------------------------

                                     IN                                         IN
                                     --                                         --
        PRECIPITATION =        2.4013D+08          PRECIPITATION =                  
           STREAMFLOW =                               STREAMFLOW =                  
     GW BOUNDARY FLOW =          15468.70       GW BOUNDARY FLOW =              6.23


                                    OUT                                        OUT
                                    ---                                        ---
   EVAPOTRANSPIRATION =        1.4072D+08     EVAPOTRANSPIRATION =           5108.96
           STREAMFLOW =        1.2975D+08             STREAMFLOW =           5151.56
     GW BOUNDARY FLOW =          95500.03       GW BOUNDARY FLOW =             22.08

   INFLOWS - OUTFLOWS =       -3.0425D+07     INFLOWS - OUTFLOWS =         -10276.36
             --------                                   --------

 TOTAL STORAGE CHANGE =       -2.4502D+07         STORAGE CHANGE =         -10206.09
       --------------                             --------------
         LAND SURFACE =                             LAND SURFACE =                  
            SOIL ZONE =        -248873.70              SOIL ZONE =          -1054.73
     UNSATURATED ZONE =         296398.56       UNSATURATED ZONE =          -1474.17
       SATURATED ZONE =       -2.4550D+07         SATURATED ZONE =          -7677.19

 OVERALL BUDGET ERROR =       -5922779.35           BUDGET ERROR =            -70.27


  PERCENT DISCREPANCY =             -2.21    PERCENT DISCREPANCY =             -0.69



1
 SUMMARY VOLUMETRIC BUDGET FOR GSFLOW 
 DATE: 10 01 2000              CUMULATIVE TIME STEP:       1
 MODFLOW STRESS PERIOD    122     CURRENT TIME STEP:    3654     ITERATIONS:       7

 -----------------------------------------------------------------------------------

   CUMULATIVE VOLUMES               L**3   RATES FOR THIS TIME STEP           L**3/T
   ------------------                      ------------------------

                                     IN                                         IN
                                     --                                         --
        PRECIPITATION =        2.4013D+08          PRECIPITATION =                  
           STREAMFLOW =                               STREAMFLOW =                  
     GW BOUNDARY FLOW =          15512.37       GW BOUNDARY FLOW =              6.24


                                    OUT                                        OUT
                                    ---                                        ---
   EVAPOTRANSPIRATION =        1.4078D+08     EVAPOTRANSPIRATION =           8219.32
           STREAMFLOW =        1.2978D+08             STREAMFLOW =           4271.64
     GW BOUNDARY FLOW =          95653.89       GW BOUNDARY FLOW =             21.98

   INFLOWS - OUTFLOWS =       -3.0514D+07     INFLOWS - OUTFLOWS =         -12506.70
             --------                                   --------

 TOTAL STORAGE CHANGE =       -2.4591D+07         STORAGE CHANGE =         -12435.44
       --------------                             --------------
         LAND SURFACE =                             LAND SURFACE =                  
            SOIL ZONE =        -260725.34              SOIL ZONE =          -1547.09
     UNSATURATED ZONE =         286205.05       UNSATURATED ZONE =          -1427.46
       SATURATED ZONE =       -2.4617D+07         SATURATED ZONE =          -9460.88

 OVERALL BUDGET ERROR =       -5923289.61           BUDGET ERROR =            -71.26


  PERCENT DISCREPANCY =             -2.21    PERCENT DISCREPANCY =             -0.57



1
 SUMMARY VOLUMETRIC BUDGET FOR GSFLOW 
 DATE: 10 08 2000              CUMULATIVE TIME STEP:       8
 MODFLOW STRESS PERIOD    122     CURRENT TIME STEP:    3661     ITERATIONS:       4

 -----------------------------------------------------------------------------------

   CUMULATIVE VOLUMES               L**3   RATES FOR THIS TIME STEP           L**3/T
   ------------------                      ------------------------

                                     IN                                         IN
                                     --                                         --
        PRECIPITATION =        2.4013D+08          PRECIPITATION =                  
           STREAMFLOW =                               STREAMFLOW =                  
     GW BOUNDARY FLOW =          15556.10       GW BOUNDARY FLOW =              6.25


                                    OUT                                        OUT
                                    ---                                        ---
   EVAPOTRANSPIRATION =        1.4083D+08     EVAPOTRANSPIRATION =           6899.01
           STREAMFLOW =        1.2981D+08             STREAMFLOW =           4663.32
     GW BOUNDARY FLOW =          95807.96       GW BOUNDARY FLOW =             22.02

   INFLOWS - OUTFLOWS =       -3.0597D+07     INFLOWS - OUTFLOWS =         -11578.10
             --------                                   --------

 TOTAL STORAGE CHANGE =       -2.4673D+07         STORAGE CHANGE =         -11488.92
       --------------                             --------------
         LAND SURFACE =                             LAND SURFACE =                  
            SOIL ZONE =        -269454.56              SOIL ZONE =          -1138.49
     UNSATURATED ZONE =         276242.10       UNSATURATED ZONE =          -1421.57
       SATURATED ZONE =       -2.4680D+07         SATURATED ZONE =          -8928.85

 OVERALL BUDGET ERROR =       -5923805.90           BUDGET ERROR =            -89.18


  PERCENT DISCREPANCY =             -2.21    PERCENT DISCREPANCY =             -0.77



1
 SUMMARY VOLUMETRIC BUDGET FOR GSFLOW 
 DATE: 10 15 2000              CUMULATIVE TIME STEP:      15
 MODFLOW STRESS PERIOD    122     CURRENT TIME STEP:    3668     ITERATIONS:       7

 -----------------------------------------------------------------------------------

   CUMULATIVE VOLUMES               L**3   RATES FOR THIS TIME STEP           L**3/T
   ------------------                      ------------------------

                                     IN                                         IN
                                     --                                         --
        PRECIPITATION =        2.4034D+08          PRECIPITATION =                  
           STREAMFLOW =                               STREAMFLOW =                  
     GW BOUNDARY FLOW =          15599.85       GW BOUNDARY FLOW =              6.25


                                    OUT                                        OUT
                                    ---                                        ---
   EVAPOTRANSPIRATION =        1.4091D+08     EVAPOTRANSPIRATION =           7262.82
           STREAMFLOW =        1.2986D+08             STREAMFLOW =           6058.74
     GW BOUNDARY FLOW =          95963.54       GW BOUNDARY FLOW =             22.18

   INFLOWS - OUTFLOWS =       -3.0506D+07     INFLOWS - OUTFLOWS =         -13337.49
             --------                                   --------

 TOTAL STORAGE CHANGE =       -2.4583D+07         STORAGE CHANGE =         -13194.03
       --------------                             --------------
         LAND SURFACE =            350.35           LAND SURFACE =          -2571.12
            SOIL ZONE =        -127943.71              SOIL ZONE =          -1897.37
     UNSATURATED ZONE =         266586.07       UNSATURATED ZONE =          -1414.35
       SATURATED ZONE =       -2.4722D+07         SATURATED ZONE =          -7311.19

 OVERALL BUDGET ERROR =       -5923279.11           BUDGET ERROR =           -143.46


  PERCENT DISCREPANCY =             -2.21    PERCENT DISCREPANCY =             -1.08



1
 SUMMARY VOLUMETRIC BUDGET FOR GSFLOW 
 DATE: 10 22 2000              CUMULATIVE TIME STEP:      22
 MODFLOW STRESS PERIOD    122     CURRENT TIME STEP:    3675     ITERATIONS:       5

 -----------------------------------------------------------------------------------

   CUMULATIVE VOLUMES               L**3   RATES FOR THIS TIME STEP           L**3/T
   ------------------                      ------------------------

                                     IN                                         IN
                                     --                                         --
        PRECIPITATION =        2.4039D+08          PRECIPITATION =                  
           STREAMFLOW =                               STREAMFLOW =                  
     GW BOUNDARY FLOW =          15643.64       GW BOUNDARY FLOW =              6.26


                                    OUT                                        OUT
                                    ---                                        ---
   EVAPOTRANSPIRATION =        1.4096D+08     EVAPOTRANSPIRATION =           8785.20
           STREAMFLOW =        1.2990D+08             STREAMFLOW =           7091.57
     GW BOUNDARY FLOW =          96119.01       GW BOUNDARY FLOW =             22.32

   INFLOWS - OUTFLOWS =       -3.0548D+07     INFLOWS - OUTFLOWS =         -15892.83
             --------                                   --------

 TOTAL STORAGE CHANGE =       -2.4624D+07         STORAGE CHANGE =         -15807.92
       --------------                             --------------
         LAND SURFACE =          28297.52           LAND SURFACE =          -8673.07
            SOIL ZONE =        -137625.24              SOIL ZONE =            -22.75
     UNSATURATED ZONE =         256629.89       UNSATURATED ZONE =          -1392.33
       SATURATED ZONE =       -2.4771D+07         SATURATED ZONE =          -5719.77

 OVERALL BUDGET ERROR =       -5923958.50           BUDGET ERROR =            -84.92


  PERCENT DISCREPANCY =             -2.21    PERCENT DISCREPANCY =             -0.54



1
 SUMMARY VOLUMETRIC BUDGET FOR GSFLOW 
 DATE: 10 29 2000              CUMULATIVE TIME STEP:      29
 MODFLOW STRESS PERIOD    122     CURRENT TIME STEP:    3682     ITERATIONS:       5

 -----------------------------------------------------------------------------------

   CUMULATIVE VOLUMES               L**3   RATES FOR THIS TIME STEP           L**3/T
   ------------------                      ------------------------

                                     IN                                         IN
                                     --                                         --
        PRECIPITATION =        2.4111D+08          PRECIPITATION =          24578.20
           STREAMFLOW =                               STREAMFLOW =                  
     GW BOUNDARY FLOW =          15687.47       GW BOUNDARY FLOW =              6.26


                                    OUT                                        OUT
                                    ---                                        ---
   EVAPOTRANSPIRATION =        1.4099D+08     EVAPOTRANSPIRATION =           1257.54
           STREAMFLOW =        1.2995D+08             STREAMFLOW =           7025.37
     GW BOUNDARY FLOW =          96275.15       GW BOUNDARY FLOW =             22.34

   INFLOWS - OUTFLOWS =       -2.9910D+07     INFLOWS - OUTFLOWS =          16279.22
             --------                                   --------

 TOTAL STORAGE CHANGE =       -2.3987D+07         STORAGE CHANGE =          16075.56
       --------------                             --------------
         LAND SURFACE =         569356.28           LAND SURFACE =           9925.66
            SOIL ZONE =          11610.84              SOIL ZONE =          13640.22
     UNSATURATED ZONE =         246995.50       UNSATURATED ZONE =          -1322.59
       SATURATED ZONE =       -2.4815D+07         SATURATED ZONE =          -6167.73

 OVERALL BUDGET ERROR =       -5922651.90           BUDGET ERROR =            203.66


  PERCENT DISCREPANCY =             -2.21    PERCENT DISCREPANCY =              0.83



