1
 SUMMARY VOLUMETRIC BUDGET FOR GSFLOW 
 DATE: 10 07 1990              CUMULATIVE TIME STEP:       7
 MODFLOW STRESS PERIOD      2     CURRENT TIME STEP:       7     ITERATIONS:       9

 -----------------------------------------------------------------------------------

   CUMULATIVE VOLUMES               L**3   RATES FOR THIS TIME STEP           L**3/T
   ------------------                      ------------------------

                                     IN                                         IN
                                     --                                         --
        PRECIPITATION =                            PRECIPITATION =                  
           STREAMFLOW =                               STREAMFLOW =                  
     GW BOUNDARY FLOW =                         GW BOUNDARY FLOW =                  


                                    OUT                                        OUT
                                    ---                                        ---
   EVAPOTRANSPIRATION =         394929.39     EVAPOTRANSPIRATION =          13151.72
           STREAMFLOW =          57612.42             STREAMFLOW =           9070.94
     GW BOUNDARY FLOW =            253.94       GW BOUNDARY FLOW =             36.37

   INFLOWS - OUTFLOWS =        -452795.75     INFLOWS - OUTFLOWS =         -22259.03
             --------                                   --------

 TOTAL STORAGE CHANGE =        -452009.33         STORAGE CHANGE =         -22197.37
       --------------                             --------------
         LAND SURFACE =                             LAND SURFACE =                  
            SOIL ZONE =        -365817.75              SOIL ZONE =          -8150.34
     UNSATURATED ZONE =        -239430.84       UNSATURATED ZONE =         -32085.97
       SATURATED ZONE =         153239.25         SATURATED ZONE =          18038.94

 OVERALL BUDGET ERROR =           -786.42           BUDGET ERROR =            -61.65


  PERCENT DISCREPANCY =             -0.17    PERCENT DISCREPANCY =             -0.28



1
 SUMMARY VOLUMETRIC BUDGET FOR GSFLOW 
 DATE: 10 14 1990              CUMULATIVE TIME STEP:      14
 MODFLOW STRESS PERIOD      2     CURRENT TIME STEP:      14     ITERATIONS:       6

 -----------------------------------------------------------------------------------

   CUMULATIVE VOLUMES               L**3   RATES FOR THIS TIME STEP           L**3/T
   ------------------                      ------------------------

                                     IN                                         IN
                                     --                                         --
        PRECIPITATION =                            PRECIPITATION =                  
           STREAMFLOW =                               STREAMFLOW =                  
     GW BOUNDARY FLOW =                         GW BOUNDARY FLOW =                  


                                    OUT                                        OUT
                                    ---                                        ---
   EVAPOTRANSPIRATION =         715987.38     EVAPOTRANSPIRATION =          59027.05
           STREAMFLOW =         118261.00             STREAMFLOW =           8920.37
     GW BOUNDARY FLOW =            508.49       GW BOUNDARY FLOW =             36.38

   INFLOWS - OUTFLOWS =        -834756.87     INFLOWS - OUTFLOWS =         -67983.81
             --------                                   --------

 TOTAL STORAGE CHANGE =        -833517.22         STORAGE CHANGE =         -67930.48
       --------------                             --------------
         LAND SURFACE =                             LAND SURFACE =                  
            SOIL ZONE =        -553736.23              SOIL ZONE =         -34181.51
     UNSATURATED ZONE =        -530886.55       UNSATURATED ZONE =         -45170.36
       SATURATED ZONE =         251105.56         SATURATED ZONE =          11421.39

 OVERALL BUDGET ERROR =          -1239.66           BUDGET ERROR =            -53.33


  PERCENT DISCREPANCY =             -0.15    PERCENT DISCREPANCY =             -0.08



1
 SUMMARY VOLUMETRIC BUDGET FOR GSFLOW 
 DATE: 10 21 1990              CUMULATIVE TIME STEP:      21
 MODFLOW STRESS PERIOD      2     CURRENT TIME STEP:      21     ITERATIONS:       6

 -----------------------------------------------------------------------------------

   CUMULATIVE VOLUMES               L**3   RATES FOR THIS TIME STEP           L**3/T
   ------------------                      ------------------------

                                     IN                                         IN
                                     --                                         --
        PRECIPITATION =         188432.87          PRECIPITATION =                  
           STREAMFLOW =                               STREAMFLOW =                  
     GW BOUNDARY FLOW =                         GW BOUNDARY FLOW =                  


                                    OUT                                        OUT
                                    ---                                        ---
   EVAPOTRANSPIRATION =         928290.27     EVAPOTRANSPIRATION =          39716.47
           STREAMFLOW =         186157.88             STREAMFLOW =          10047.22
     GW BOUNDARY FLOW =            763.67       GW BOUNDARY FLOW =             36.47

   INFLOWS - OUTFLOWS =        -926778.95     INFLOWS - OUTFLOWS =         -49800.17
             --------                                   --------

 TOTAL STORAGE CHANGE =        -925277.19         STORAGE CHANGE =         -49770.39
       --------------                             --------------
         LAND SURFACE =           4395.42           LAND SURFACE =         -25675.32
            SOIL ZONE =        -504237.66              SOIL ZONE =          -7586.20
     UNSATURATED ZONE =        -758484.20       UNSATURATED ZONE =         -28287.71
       SATURATED ZONE =         333049.25         SATURATED ZONE =          11778.85

 OVERALL BUDGET ERROR =          -1501.77           BUDGET ERROR =            -29.78


  PERCENT DISCREPANCY =             -0.13    PERCENT DISCREPANCY =             -0.06



1
 SUMMARY VOLUMETRIC BUDGET FOR GSFLOW 
 DATE: 10 28 1990              CUMULATIVE TIME STEP:      28
 MODFLOW STRESS PERIOD      2     CURRENT TIME STEP:      28     ITERATIONS:       6

 -----------------------------------------------------------------------------------

   CUMULATIVE VOLUMES               L**3   RATES FOR THIS TIME STEP           L**3/T
   ------------------                      ------------------------

                                     IN                                         IN
                                     --                                         --
        PRECIPITATION =         188432.87          PRECIPITATION =                  
           STREAMFLOW =                               STREAMFLOW =                  
     GW BOUNDARY FLOW =                         GW BOUNDARY FLOW =                  


                                    OUT                                        OUT
                                    ---                                        ---
   EVAPOTRANSPIRATION =        1194098.16     EVAPOTRANSPIRATION =          27729.28
           STREAMFLOW =         253636.78             STREAMFLOW =           9812.32
     GW BOUNDARY FLOW =           1018.40       GW BOUNDARY FLOW =             36.36

   INFLOWS - OUTFLOWS =       -1260320.47     INFLOWS - OUTFLOWS =         -37577.95
             --------                                   --------

 TOTAL STORAGE CHANGE =       -1258602.23         STORAGE CHANGE =         -37551.00
       --------------                             --------------
         LAND SURFACE =                             LAND SURFACE =                  
            SOIL ZONE =        -668142.42              SOIL ZONE =         -18191.18
     UNSATURATED ZONE =        -989453.79       UNSATURATED ZONE =         -28525.93
       SATURATED ZONE =         398993.98         SATURATED ZONE =           9166.11

 OVERALL BUDGET ERROR =          -1718.24           BUDGET ERROR =            -26.95


  PERCENT DISCREPANCY =             -0.12    PERCENT DISCREPANCY =             -0.07



1
 SUMMARY VOLUMETRIC BUDGET FOR GSFLOW 
 DATE: 11 04 1990              CUMULATIVE TIME STEP:       4
 MODFLOW STRESS PERIOD      3     CURRENT TIME STEP:      35     ITERATIONS:       6

 -----------------------------------------------------------------------------------

   CUMULATIVE VOLUMES               L**3   RATES FOR THIS TIME STEP           L**3/T
   ------------------                      ------------------------

                                     IN                                         IN
                                     --                                         --
        PRECIPITATION =         703113.06          PRECIPITATION =                  
           STREAMFLOW =                               STREAMFLOW =                  
     GW BOUNDARY FLOW =                         GW BOUNDARY FLOW =                  


                                    OUT                                        OUT
                                    ---                                        ---
   EVAPOTRANSPIRATION =        1286054.50     EVAPOTRANSPIRATION =          26232.94
           STREAMFLOW =         327196.70             STREAMFLOW =          10778.64
     GW BOUNDARY FLOW =           1272.96       GW BOUNDARY FLOW =             36.35

   INFLOWS - OUTFLOWS =        -911411.10     INFLOWS - OUTFLOWS =         -37047.92
             --------                                   --------

 TOTAL STORAGE CHANGE =        -909542.61         STORAGE CHANGE =         -37030.21
       --------------                             --------------
         LAND SURFACE =          36990.26           LAND SURFACE =         -34939.93
            SOIL ZONE =        -268409.34              SOIL ZONE =           8813.54
     UNSATURATED ZONE =       -1149961.93       UNSATURATED ZONE =         -21506.74
       SATURATED ZONE =         471838.41         SATURATED ZONE =          10602.92

 OVERALL BUDGET ERROR =          -1868.49           BUDGET ERROR =            -17.71


  PERCENT DISCREPANCY =             -0.12    PERCENT DISCREPANCY =             -0.05



1
 SUMMARY VOLUMETRIC BUDGET FOR GSFLOW 
 DATE: 11 11 1990              CUMULATIVE TIME STEP:      11
 MODFLOW STRESS PERIOD      3     CURRENT TIME STEP:      42     ITERATIONS:       6

 -----------------------------------------------------------------------------------

   CUMULATIVE VOLUMES               L**3   RATES FOR THIS TIME STEP           L**3/T
   ------------------                      ------------------------

                                     IN                                         IN
                                     --                                         --
        PRECIPITATION =         703113.06          PRECIPITATION =                  
           STREAMFLOW =                               STREAMFLOW =                  
     GW BOUNDARY FLOW =                         GW BOUNDARY FLOW =                  


                                    OUT                                        OUT
                                    ---                                        ---
   EVAPOTRANSPIRATION =        1423657.12     EVAPOTRANSPIRATION =          27713.86
           STREAMFLOW =         402710.26             STREAMFLOW =          10670.98
     GW BOUNDARY FLOW =           1526.87       GW BOUNDARY FLOW =             36.20

   INFLOWS - OUTFLOWS =       -1124781.18     INFLOWS - OUTFLOWS =         -38421.04
             --------                                   --------

 TOTAL STORAGE CHANGE =       -1122794.12         STORAGE CHANGE =         -38405.06
       --------------                             --------------
         LAND SURFACE =            195.77           LAND SURFACE =           -519.43
            SOIL ZONE =        -364627.15              SOIL ZONE =         -25353.80
     UNSATURATED ZONE =       -1298078.64       UNSATURATED ZONE =         -21093.14
       SATURATED ZONE =         539715.90         SATURATED ZONE =           8561.31

 OVERALL BUDGET ERROR =          -1987.06           BUDGET ERROR =            -15.98


  PERCENT DISCREPANCY =             -0.11    PERCENT DISCREPANCY =             -0.04



1
 SUMMARY VOLUMETRIC BUDGET FOR GSFLOW 
 DATE: 11 18 1990              CUMULATIVE TIME STEP:      18
 MODFLOW STRESS PERIOD      3     CURRENT TIME STEP:      49     ITERATIONS:       6

 -----------------------------------------------------------------------------------

   CUMULATIVE VOLUMES               L**3   RATES FOR THIS TIME STEP           L**3/T
   ------------------                      ------------------------

                                     IN                                         IN
                                     --                                         --
        PRECIPITATION =         747883.35          PRECIPITATION =                  
           STREAMFLOW =                               STREAMFLOW =                  
     GW BOUNDARY FLOW =                         GW BOUNDARY FLOW =                  


                                    OUT                                        OUT
                                    ---                                        ---
   EVAPOTRANSPIRATION =        1535175.11     EVAPOTRANSPIRATION =           6032.29
           STREAMFLOW =         478213.50             STREAMFLOW =          10927.07
     GW BOUNDARY FLOW =           1779.89       GW BOUNDARY FLOW =             36.11

   INFLOWS - OUTFLOWS =       -1267285.15     INFLOWS - OUTFLOWS =         -16995.48
             --------                                   --------

 TOTAL STORAGE CHANGE =       -1265194.37         STORAGE CHANGE =         -16981.31
       --------------                             --------------
         LAND SURFACE =           5912.97           LAND SURFACE =          -3365.44
            SOIL ZONE =        -426034.20              SOIL ZONE =          -1819.61
     UNSATURATED ZONE =       -1442525.55       UNSATURATED ZONE =         -20004.87
       SATURATED ZONE =         597452.41         SATURATED ZONE =           8208.61

 OVERALL BUDGET ERROR =          -2090.78           BUDGET ERROR =            -14.16


  PERCENT DISCREPANCY =             -0.10    PERCENT DISCREPANCY =             -0.08



1
 SUMMARY VOLUMETRIC BUDGET FOR GSFLOW 
 DATE: 11 25 1990              CUMULATIVE TIME STEP:      25
 MODFLOW STRESS PERIOD      3     CURRENT TIME STEP:      56     ITERATIONS:       6

 -----------------------------------------------------------------------------------

   CUMULATIVE VOLUMES               L**3   RATES FOR THIS TIME STEP           L**3/T
   ------------------                      ------------------------

                                     IN                                         IN
                                     --                                         --
        PRECIPITATION =        1009043.38          PRECIPITATION =         186542.88
           STREAMFLOW =                               STREAMFLOW =                  
     GW BOUNDARY FLOW =                         GW BOUNDARY FLOW =                  


                                    OUT                                        OUT
                                    ---                                        ---
   EVAPOTRANSPIRATION =        1599394.16     EVAPOTRANSPIRATION =           6357.62
           STREAMFLOW =         555870.54             STREAMFLOW =          11145.14
     GW BOUNDARY FLOW =           2032.52       GW BOUNDARY FLOW =             36.07

   INFLOWS - OUTFLOWS =       -1148253.84     INFLOWS - OUTFLOWS =         169004.05
             --------                                   --------

 TOTAL STORAGE CHANGE =       -1146076.77         STORAGE CHANGE =         169014.00
       --------------                             --------------
         LAND SURFACE =          37126.34           LAND SURFACE =          20235.48
            SOIL ZONE =        -258011.97              SOIL ZONE =         160277.16
     UNSATURATED ZONE =       -1578605.25       UNSATURATED ZONE =         -19158.21
       SATURATED ZONE =         653414.12         SATURATED ZONE =           7659.57

 OVERALL BUDGET ERROR =          -2177.07           BUDGET ERROR =             -9.95


  PERCENT DISCREPANCY =             -0.10    PERCENT DISCREPANCY =             -0.01



1
 SUMMARY VOLUMETRIC BUDGET FOR GSFLOW 
 DATE: 12 02 1990              CUMULATIVE TIME STEP:       2
 MODFLOW STRESS PERIOD      4     CURRENT TIME STEP:      63     ITERATIONS:       6

 -----------------------------------------------------------------------------------

   CUMULATIVE VOLUMES               L**3   RATES FOR THIS TIME STEP           L**3/T
   ------------------                      ------------------------

                                     IN                                         IN
                                     --                                         --
        PRECIPITATION =        1449284.55          PRECIPITATION =                  
           STREAMFLOW =                               STREAMFLOW =                  
     GW BOUNDARY FLOW =                         GW BOUNDARY FLOW =                  


                                    OUT                                        OUT
                                    ---                                        ---
   EVAPOTRANSPIRATION =        1607137.98     EVAPOTRANSPIRATION =            374.58
           STREAMFLOW =         634639.82             STREAMFLOW =          11409.03
     GW BOUNDARY FLOW =           2284.63       GW BOUNDARY FLOW =             35.98

   INFLOWS - OUTFLOWS =        -794777.87     INFLOWS - OUTFLOWS =         -11819.59
             --------                                   --------

 TOTAL STORAGE CHANGE =        -792555.06         STORAGE CHANGE =         -11813.39
       --------------                             --------------
         LAND SURFACE =         437197.96           LAND SURFACE =           -451.19
            SOIL ZONE =        -224369.69              SOIL ZONE =            226.37
     UNSATURATED ZONE =       -1708986.32       UNSATURATED ZONE =         -18266.61
       SATURATED ZONE =         703602.99         SATURATED ZONE =           6678.04

 OVERALL BUDGET ERROR =          -2222.81           BUDGET ERROR =             -6.20


  PERCENT DISCREPANCY =             -0.10    PERCENT DISCREPANCY =             -0.05



1
 SUMMARY VOLUMETRIC BUDGET FOR GSFLOW 
 DATE: 12 09 1990              CUMULATIVE TIME STEP:       9
 MODFLOW STRESS PERIOD      4     CURRENT TIME STEP:      70     ITERATIONS:       5

 -----------------------------------------------------------------------------------

   CUMULATIVE VOLUMES               L**3   RATES FOR THIS TIME STEP           L**3/T
   ------------------                      ------------------------

                                     IN                                         IN
                                     --                                         --
        PRECIPITATION =        1449284.55          PRECIPITATION =                  
           STREAMFLOW =                               STREAMFLOW =                  
     GW BOUNDARY FLOW =                         GW BOUNDARY FLOW =                  


                                    OUT                                        OUT
                                    ---                                        ---
   EVAPOTRANSPIRATION =        1700719.43     EVAPOTRANSPIRATION =          20934.82
           STREAMFLOW =         715139.42             STREAMFLOW =          11538.74
     GW BOUNDARY FLOW =           2536.13       GW BOUNDARY FLOW =             35.89

   INFLOWS - OUTFLOWS =        -969110.43     INFLOWS - OUTFLOWS =         -32509.44
             --------                                   --------

 TOTAL STORAGE CHANGE =        -966845.41         STORAGE CHANGE =         -32506.98
       --------------                             --------------
         LAND SURFACE =          41512.44           LAND SURFACE =         -36212.48
            SOIL ZONE =          80639.90              SOIL ZONE =          16101.71
     UNSATURATED ZONE =       -1835037.38       UNSATURATED ZONE =         -17993.60
       SATURATED ZONE =         746039.63         SATURATED ZONE =           5597.38

 OVERALL BUDGET ERROR =          -2265.02           BUDGET ERROR =             -2.46


  PERCENT DISCREPANCY =             -0.09    PERCENT DISCREPANCY =             -0.01



1
 SUMMARY VOLUMETRIC BUDGET FOR GSFLOW 
 DATE: 12 16 1990              CUMULATIVE TIME STEP:      16
 MODFLOW STRESS PERIOD      4     CURRENT TIME STEP:      77     ITERATIONS:       5

 -----------------------------------------------------------------------------------

   CUMULATIVE VOLUMES               L**3   RATES FOR THIS TIME STEP           L**3/T
   ------------------                      ------------------------

                                     IN                                         IN
                                     --                                         --
        PRECIPITATION =        1804962.84          PRECIPITATION =                  
           STREAMFLOW =                               STREAMFLOW =                  
     GW BOUNDARY FLOW =                         GW BOUNDARY FLOW =                  


                                    OUT                                        OUT
                                    ---                                        ---
   EVAPOTRANSPIRATION =        1741507.84     EVAPOTRANSPIRATION =                  
           STREAMFLOW =         796458.61             STREAMFLOW =          11664.06
     GW BOUNDARY FLOW =           2786.99       GW BOUNDARY FLOW =             35.80

   INFLOWS - OUTFLOWS =        -735790.60     INFLOWS - OUTFLOWS =         -11699.86
             --------                                   --------

 TOTAL STORAGE CHANGE =        -733509.63         STORAGE CHANGE =         -11696.99
       --------------                             --------------
         LAND SURFACE =         187163.75           LAND SURFACE =                  
            SOIL ZONE =         252098.69              SOIL ZONE =            170.51
     UNSATURATED ZONE =       -1955643.22       UNSATURATED ZONE =         -16810.47
       SATURATED ZONE =         782871.14         SATURATED ZONE =           4942.97

 OVERALL BUDGET ERROR =          -2280.97           BUDGET ERROR =             -2.88


  PERCENT DISCREPANCY =             -0.09    PERCENT DISCREPANCY =             -0.02



1
 SUMMARY VOLUMETRIC BUDGET FOR GSFLOW 
 DATE: 12 23 1990              CUMULATIVE TIME STEP:      23
 MODFLOW STRESS PERIOD      4     CURRENT TIME STEP:      84     ITERATIONS:       5

 -----------------------------------------------------------------------------------

   CUMULATIVE VOLUMES               L**3   RATES FOR THIS TIME STEP           L**3/T
   ------------------                      ------------------------

                                     IN                                         IN
                                     --                                         --
        PRECIPITATION =        2276236.55          PRECIPITATION =                  
           STREAMFLOW =                               STREAMFLOW =                  
     GW BOUNDARY FLOW =                         GW BOUNDARY FLOW =                  


                                    OUT                                        OUT
                                    ---                                        ---
   EVAPOTRANSPIRATION =        1742886.08     EVAPOTRANSPIRATION =                  
           STREAMFLOW =         878541.92             STREAMFLOW =          11766.69
     GW BOUNDARY FLOW =           3037.25       GW BOUNDARY FLOW =             35.72

   INFLOWS - OUTFLOWS =        -348228.70     INFLOWS - OUTFLOWS =         -11802.40
             --------                                   --------

 TOTAL STORAGE CHANGE =        -345920.31         STORAGE CHANGE =         -11797.81
       --------------                             --------------
         LAND SURFACE =         657066.96           LAND SURFACE =                  
            SOIL ZONE =         253346.19              SOIL ZONE =            182.83
     UNSATURATED ZONE =       -2070874.05       UNSATURATED ZONE =         -16197.37
       SATURATED ZONE =         814540.59         SATURATED ZONE =           4216.73

 OVERALL BUDGET ERROR =          -2308.40           BUDGET ERROR =             -4.60


  PERCENT DISCREPANCY =             -0.09    PERCENT DISCREPANCY =             -0.04



1
 SUMMARY VOLUMETRIC BUDGET FOR GSFLOW 
 DATE: 12 30 1990              CUMULATIVE TIME STEP:      30
 MODFLOW STRESS PERIOD      4     CURRENT TIME STEP:      91     ITERATIONS:       5

 -----------------------------------------------------------------------------------

   CUMULATIVE VOLUMES               L**3   RATES FOR THIS TIME STEP           L**3/T
   ------------------                      ------------------------

                                     IN                                         IN
                                     --                                         --
        PRECIPITATION =        2276236.55          PRECIPITATION =                  
           STREAMFLOW =                               STREAMFLOW =                  
     GW BOUNDARY FLOW =              0.03       GW BOUNDARY FLOW =              0.02


                                    OUT                                        OUT
                                    ---                                        ---
   EVAPOTRANSPIRATION =        1743638.95     EVAPOTRANSPIRATION =                  
           STREAMFLOW =         961202.25             STREAMFLOW =          11835.37
     GW BOUNDARY FLOW =           3287.77       GW BOUNDARY FLOW =             35.78

   INFLOWS - OUTFLOWS =        -431892.40     INFLOWS - OUTFLOWS =         -11871.14
             --------                                   --------

 TOTAL STORAGE CHANGE =        -429546.58         STORAGE CHANGE =         -11865.16
       --------------                             --------------
         LAND SURFACE =         656314.47           LAND SURFACE =                  
            SOIL ZONE =         254655.16              SOIL ZONE =            190.71
     UNSATURATED ZONE =       -2181555.46       UNSATURATED ZONE =         -15548.47
       SATURATED ZONE =         841039.25         SATURATED ZONE =           3492.60

 OVERALL BUDGET ERROR =          -2345.82           BUDGET ERROR =             -5.98


  PERCENT DISCREPANCY =             -0.09    PERCENT DISCREPANCY =             -0.05



1
 SUMMARY VOLUMETRIC BUDGET FOR GSFLOW 
 DATE: 01 06 1991              CUMULATIVE TIME STEP:       6
 MODFLOW STRESS PERIOD      5     CURRENT TIME STEP:      98     ITERATIONS:       6

 -----------------------------------------------------------------------------------

   CUMULATIVE VOLUMES               L**3   RATES FOR THIS TIME STEP           L**3/T
   ------------------                      ------------------------

                                     IN                                         IN
                                     --                                         --
        PRECIPITATION =        2276236.55          PRECIPITATION =                  
           STREAMFLOW =                               STREAMFLOW =                  
     GW BOUNDARY FLOW =              0.57       GW BOUNDARY FLOW =              0.12


                                    OUT                                        OUT
                                    ---                                        ---
   EVAPOTRANSPIRATION =        1766981.65     EVAPOTRANSPIRATION =           2588.73
           STREAMFLOW =        1043042.61             STREAMFLOW =          11801.47
     GW BOUNDARY FLOW =           3538.25       GW BOUNDARY FLOW =             35.79

   INFLOWS - OUTFLOWS =        -537325.40     INFLOWS - OUTFLOWS =         -14425.87
             --------                                   --------

 TOTAL STORAGE CHANGE =        -534935.34         STORAGE CHANGE =         -14419.11
       --------------                             --------------
         LAND SURFACE =         548041.05           LAND SURFACE =          -6127.39
            SOIL ZONE =         341053.63              SOIL ZONE =           3745.10
     UNSATURATED ZONE =       -2288123.66       UNSATURATED ZONE =         -14960.34
       SATURATED ZONE =         864093.64         SATURATED ZONE =           2923.51

 OVERALL BUDGET ERROR =          -2390.05           BUDGET ERROR =             -6.75


  PERCENT DISCREPANCY =             -0.08    PERCENT DISCREPANCY =             -0.05



1
 SUMMARY VOLUMETRIC BUDGET FOR GSFLOW 
 DATE: 01 13 1991              CUMULATIVE TIME STEP:      13
 MODFLOW STRESS PERIOD      5     CURRENT TIME STEP:     105     ITERATIONS:       6

 -----------------------------------------------------------------------------------

   CUMULATIVE VOLUMES               L**3   RATES FOR THIS TIME STEP           L**3/T
   ------------------                      ------------------------

                                     IN                                         IN
                                     --                                         --
        PRECIPITATION =        2596386.94          PRECIPITATION =          10327.43
           STREAMFLOW =                               STREAMFLOW =                  
     GW BOUNDARY FLOW =              1.77       GW BOUNDARY FLOW =              0.21


                                    OUT                                        OUT
                                    ---                                        ---
   EVAPOTRANSPIRATION =        1829070.34     EVAPOTRANSPIRATION =          18257.98
           STREAMFLOW =        1125871.65             STREAMFLOW =          11713.89
     GW BOUNDARY FLOW =           3788.70       GW BOUNDARY FLOW =             35.76

   INFLOWS - OUTFLOWS =        -362341.98     INFLOWS - OUTFLOWS =         -19679.98
             --------                                   --------

 TOTAL STORAGE CHANGE =        -359897.91         STORAGE CHANGE =         -19672.46
       --------------                             --------------
         LAND SURFACE =         512042.82           LAND SURFACE =        -134113.87
            SOIL ZONE =         640304.79              SOIL ZONE =         129020.18
     UNSATURATED ZONE =       -2392897.84       UNSATURATED ZONE =         -16013.18
       SATURATED ZONE =         880652.32         SATURATED ZONE =           1434.41

 OVERALL BUDGET ERROR =          -2444.08           BUDGET ERROR =             -7.52


  PERCENT DISCREPANCY =             -0.08    PERCENT DISCREPANCY =             -0.03



1
 SUMMARY VOLUMETRIC BUDGET FOR GSFLOW 
 DATE: 01 20 1991              CUMULATIVE TIME STEP:      20
 MODFLOW STRESS PERIOD      5     CURRENT TIME STEP:     112     ITERATIONS:       6

 -----------------------------------------------------------------------------------

   CUMULATIVE VOLUMES               L**3   RATES FOR THIS TIME STEP           L**3/T
   ------------------                      ------------------------

                                     IN                                         IN
                                     --                                         --
        PRECIPITATION =        2596386.94          PRECIPITATION =                  
           STREAMFLOW =                               STREAMFLOW =                  
     GW BOUNDARY FLOW =              3.58       GW BOUNDARY FLOW =              0.30


                                    OUT                                        OUT
                                    ---                                        ---
   EVAPOTRANSPIRATION =        1899512.01     EVAPOTRANSPIRATION =           1899.32
           STREAMFLOW =        1207958.25             STREAMFLOW =          11917.70
     GW BOUNDARY FLOW =           4039.14       GW BOUNDARY FLOW =             35.78

   INFLOWS - OUTFLOWS =        -515118.87     INFLOWS - OUTFLOWS =         -13852.50
             --------                                   --------

 TOTAL STORAGE CHANGE =        -512629.53         STORAGE CHANGE =         -13845.04
       --------------                             --------------
         LAND SURFACE =         353293.54           LAND SURFACE =           -254.70
            SOIL ZONE =         733956.27              SOIL ZONE =          -1320.42
     UNSATURATED ZONE =       -2493919.50       UNSATURATED ZONE =         -13895.35
       SATURATED ZONE =         894040.16         SATURATED ZONE =           1625.43

 OVERALL BUDGET ERROR =          -2489.34           BUDGET ERROR =             -7.46


  PERCENT DISCREPANCY =             -0.08    PERCENT DISCREPANCY =             -0.05



1
 SUMMARY VOLUMETRIC BUDGET FOR GSFLOW 
 DATE: 01 27 1991              CUMULATIVE TIME STEP:      27
 MODFLOW STRESS PERIOD      5     CURRENT TIME STEP:     119     ITERATIONS:       5

 -----------------------------------------------------------------------------------

   CUMULATIVE VOLUMES               L**3   RATES FOR THIS TIME STEP           L**3/T
   ------------------                      ------------------------

                                     IN                                         IN
                                     --                                         --
        PRECIPITATION =        2596386.94          PRECIPITATION =                  
           STREAMFLOW =                               STREAMFLOW =                  
     GW BOUNDARY FLOW =              5.99       GW BOUNDARY FLOW =              0.38


                                    OUT                                        OUT
                                    ---                                        ---
   EVAPOTRANSPIRATION =        1921925.75     EVAPOTRANSPIRATION =           1246.58
           STREAMFLOW =        1291649.66             STREAMFLOW =          11996.34
     GW BOUNDARY FLOW =           4289.57       GW BOUNDARY FLOW =             35.78

   INFLOWS - OUTFLOWS =        -621472.05     INFLOWS - OUTFLOWS =         -13278.31
             --------                                   --------

 TOTAL STORAGE CHANGE =        -618901.92         STORAGE CHANGE =         -13266.37
       --------------                             --------------
         LAND SURFACE =         325482.24           LAND SURFACE =            -73.52
            SOIL ZONE =         742840.69              SOIL ZONE =           -928.71
     UNSATURATED ZONE =       -2589765.00       UNSATURATED ZONE =         -13272.86
       SATURATED ZONE =         902540.15         SATURATED ZONE =           1008.72

 OVERALL BUDGET ERROR =          -2570.13           BUDGET ERROR =            -11.94


  PERCENT DISCREPANCY =             -0.08    PERCENT DISCREPANCY =             -0.09



1
 SUMMARY VOLUMETRIC BUDGET FOR GSFLOW 
 DATE: 02 03 1991              CUMULATIVE TIME STEP:       3
 MODFLOW STRESS PERIOD      6     CURRENT TIME STEP:     126     ITERATIONS:       6

 -----------------------------------------------------------------------------------

   CUMULATIVE VOLUMES               L**3   RATES FOR THIS TIME STEP           L**3/T
   ------------------                      ------------------------

                                     IN                                         IN
                                     --                                         --
        PRECIPITATION =        3228422.31          PRECIPITATION =          30459.53
           STREAMFLOW =                               STREAMFLOW =                  
     GW BOUNDARY FLOW =              8.98       GW BOUNDARY FLOW =              0.46


                                    OUT                                        OUT
                                    ---                                        ---
   EVAPOTRANSPIRATION =        2027232.80     EVAPOTRANSPIRATION =          20882.16
           STREAMFLOW =        1375614.59             STREAMFLOW =          12044.83
     GW BOUNDARY FLOW =           4539.96       GW BOUNDARY FLOW =             35.77

   INFLOWS - OUTFLOWS =        -178956.07     INFLOWS - OUTFLOWS =          -2502.76
             --------                                   --------

 TOTAL STORAGE CHANGE =        -176308.01         STORAGE CHANGE =          -2494.74
       --------------                             --------------
         LAND SURFACE =         146751.00           LAND SURFACE =         -24802.24
            SOIL ZONE =        1456399.86              SOIL ZONE =          34740.60
     UNSATURATED ZONE =       -2685436.73       UNSATURATED ZONE =         -12768.47
       SATURATED ZONE =         905977.86         SATURATED ZONE =            335.38

 OVERALL BUDGET ERROR =          -2648.06           BUDGET ERROR =             -8.02


  PERCENT DISCREPANCY =             -0.08    PERCENT DISCREPANCY =             -0.02



1
 SUMMARY VOLUMETRIC BUDGET FOR GSFLOW 
 DATE: 02 10 1991              CUMULATIVE TIME STEP:      10
 MODFLOW STRESS PERIOD      6     CURRENT TIME STEP:     133     ITERATIONS:       5

 -----------------------------------------------------------------------------------

   CUMULATIVE VOLUMES               L**3   RATES FOR THIS TIME STEP           L**3/T
   ------------------                      ------------------------

                                     IN                                         IN
                                     --                                         --
        PRECIPITATION =        3510173.01          PRECIPITATION =                  
           STREAMFLOW =                               STREAMFLOW =                  
     GW BOUNDARY FLOW =             12.52       GW BOUNDARY FLOW =              0.54


                                    OUT                                        OUT
                                    ---                                        ---
   EVAPOTRANSPIRATION =        2195350.36     EVAPOTRANSPIRATION =          26021.70
           STREAMFLOW =        1460423.64             STREAMFLOW =          12137.15
     GW BOUNDARY FLOW =           4790.14       GW BOUNDARY FLOW =             35.70

   INFLOWS - OUTFLOWS =        -150378.62     INFLOWS - OUTFLOWS =         -38194.01
             --------                                   --------

 TOTAL STORAGE CHANGE =        -147644.10         STORAGE CHANGE =         -38179.56
       --------------                             --------------
         LAND SURFACE =          63774.58           LAND SURFACE =         -10017.74
            SOIL ZONE =        1646264.95              SOIL ZONE =         -16844.02
     UNSATURATED ZONE =       -2764525.91       UNSATURATED ZONE =         -11161.28
       SATURATED ZONE =         906842.28         SATURATED ZONE =           -156.52

 OVERALL BUDGET ERROR =          -2734.52           BUDGET ERROR =            -14.45


  PERCENT DISCREPANCY =             -0.07    PERCENT DISCREPANCY =             -0.04



1
 SUMMARY VOLUMETRIC BUDGET FOR GSFLOW 
 DATE: 02 17 1991              CUMULATIVE TIME STEP:      17
 MODFLOW STRESS PERIOD      6     CURRENT TIME STEP:     140     ITERATIONS:       5

 -----------------------------------------------------------------------------------

   CUMULATIVE VOLUMES               L**3   RATES FOR THIS TIME STEP           L**3/T
   ------------------                      ------------------------

                                     IN                                         IN
                                     --                                         --
        PRECIPITATION =        3510173.01          PRECIPITATION =                  
           STREAMFLOW =                               STREAMFLOW =                  
     GW BOUNDARY FLOW =             16.56       GW BOUNDARY FLOW =              0.61


                                    OUT                                        OUT
                                    ---                                        ---
   EVAPOTRANSPIRATION =        2439604.45     EVAPOTRANSPIRATION =          23162.46
           STREAMFLOW =        1545538.50             STREAMFLOW =          12174.89
     GW BOUNDARY FLOW =           5039.71       GW BOUNDARY FLOW =             35.61

   INFLOWS - OUTFLOWS =        -479993.09     INFLOWS - OUTFLOWS =         -35372.35
             --------                                   --------

 TOTAL STORAGE CHANGE =        -477151.50         STORAGE CHANGE =         -35356.62
       --------------                             --------------
         LAND SURFACE =          10625.62           LAND SURFACE =          -1107.15
            SOIL ZONE =        1449334.73              SOIL ZONE =         -23064.51
     UNSATURATED ZONE =       -2841113.74       UNSATURATED ZONE =         -10643.01
       SATURATED ZONE =         904001.88         SATURATED ZONE =           -541.95

 OVERALL BUDGET ERROR =          -2841.59           BUDGET ERROR =            -15.74


  PERCENT DISCREPANCY =             -0.07    PERCENT DISCREPANCY =             -0.04



1
 SUMMARY VOLUMETRIC BUDGET FOR GSFLOW 
 DATE: 02 24 1991              CUMULATIVE TIME STEP:      24
 MODFLOW STRESS PERIOD      6     CURRENT TIME STEP:     147     ITERATIONS:       5

 -----------------------------------------------------------------------------------

   CUMULATIVE VOLUMES               L**3   RATES FOR THIS TIME STEP           L**3/T
   ------------------                      ------------------------

                                     IN                                         IN
                                     --                                         --
        PRECIPITATION =        3510173.01          PRECIPITATION =                  
           STREAMFLOW =                               STREAMFLOW =                  
     GW BOUNDARY FLOW =             21.09       GW BOUNDARY FLOW =              0.68


                                    OUT                                        OUT
                                    ---                                        ---
   EVAPOTRANSPIRATION =        2633276.29     EVAPOTRANSPIRATION =          18113.40
           STREAMFLOW =        1629872.69             STREAMFLOW =          11932.77
     GW BOUNDARY FLOW =           5288.61       GW BOUNDARY FLOW =             35.50

   INFLOWS - OUTFLOWS =        -758243.49     INFLOWS - OUTFLOWS =         -30080.99
             --------                                   --------

 TOTAL STORAGE CHANGE =        -755292.42         STORAGE CHANGE =         -30063.68
       --------------                             --------------
         LAND SURFACE =           3951.44           LAND SURFACE =           -125.27
            SOIL ZONE =        1263076.45              SOIL ZONE =         -17367.54
     UNSATURATED ZONE =       -2915538.67       UNSATURATED ZONE =         -10618.72
       SATURATED ZONE =         893218.36         SATURATED ZONE =          -1952.15

 OVERALL BUDGET ERROR =          -2951.07           BUDGET ERROR =            -17.31


  PERCENT DISCREPANCY =             -0.07    PERCENT DISCREPANCY =             -0.06



1
 SUMMARY VOLUMETRIC BUDGET FOR GSFLOW 
 DATE: 03 03 1991              CUMULATIVE TIME STEP:       3
 MODFLOW STRESS PERIOD      7     CURRENT TIME STEP:     154     ITERATIONS:       5

 -----------------------------------------------------------------------------------

   CUMULATIVE VOLUMES               L**3   RATES FOR THIS TIME STEP           L**3/T
   ------------------                      ------------------------

                                     IN                                         IN
                                     --                                         --
        PRECIPITATION =        6220189.63          PRECIPITATION =        1243187.24
           STREAMFLOW =                               STREAMFLOW =                  
     GW BOUNDARY FLOW =             26.08       GW BOUNDARY FLOW =              0.74


                                    OUT                                        OUT
                                    ---                                        ---
   EVAPOTRANSPIRATION =        2762207.35     EVAPOTRANSPIRATION =           8690.52
           STREAMFLOW =        1713068.01             STREAMFLOW =          12167.15
     GW BOUNDARY FLOW =           5536.74       GW BOUNDARY FLOW =             35.44

   INFLOWS - OUTFLOWS =        1739403.61     INFLOWS - OUTFLOWS =        1222294.88
             --------                                   --------

 TOTAL STORAGE CHANGE =        1742481.16         STORAGE CHANGE =        1222312.85
       --------------                             --------------
         LAND SURFACE =        2158411.84           LAND SURFACE =         700230.69
            SOIL ZONE =        1697389.07              SOIL ZONE =         534039.22
     UNSATURATED ZONE =       -2989966.24       UNSATURATED ZONE =         -10034.60
       SATURATED ZONE =         876646.50         SATURATED ZONE =          -1922.46

 OVERALL BUDGET ERROR =          -3077.55           BUDGET ERROR =            -17.97


  PERCENT DISCREPANCY =             -0.05    PERCENT DISCREPANCY =             -0.00



1
 SUMMARY VOLUMETRIC BUDGET FOR GSFLOW 
 DATE: 03 10 1991              CUMULATIVE TIME STEP:      10
 MODFLOW STRESS PERIOD      7     CURRENT TIME STEP:     161     ITERATIONS:       5

 -----------------------------------------------------------------------------------

   CUMULATIVE VOLUMES               L**3   RATES FOR THIS TIME STEP           L**3/T
   ------------------                      ------------------------

                                     IN                                         IN
                                     --                                         --
        PRECIPITATION =        8746030.42          PRECIPITATION =          32888.55
           STREAMFLOW =                               STREAMFLOW =                  
     GW BOUNDARY FLOW =             31.47       GW BOUNDARY FLOW =              0.80


                                    OUT                                        OUT
                                    ---                                        ---
   EVAPOTRANSPIRATION =        2816680.14     EVAPOTRANSPIRATION =           7502.93
           STREAMFLOW =        2636120.92             STREAMFLOW =          13557.68
     GW BOUNDARY FLOW =           5790.58       GW BOUNDARY FLOW =             35.41

   INFLOWS - OUTFLOWS =        3287470.26     INFLOWS - OUTFLOWS =          11793.33
             --------                                   --------

 TOTAL STORAGE CHANGE =        3290632.96         STORAGE CHANGE =          11812.22
       --------------                             --------------
         LAND SURFACE =        2235698.36           LAND SURFACE =          -4542.91
            SOIL ZONE =        3180548.99              SOIL ZONE =          18235.52
     UNSATURATED ZONE =       -2993019.97       UNSATURATED ZONE =           -197.45
       SATURATED ZONE =         867405.58         SATURATED ZONE =          -1682.94

 OVERALL BUDGET ERROR =          -3162.70           BUDGET ERROR =            -18.89


  PERCENT DISCREPANCY =             -0.04    PERCENT DISCREPANCY =             -0.06



1
 SUMMARY VOLUMETRIC BUDGET FOR GSFLOW 
 DATE: 03 17 1991              CUMULATIVE TIME STEP:      17
 MODFLOW STRESS PERIOD      7     CURRENT TIME STEP:     168     ITERATIONS:       5

 -----------------------------------------------------------------------------------

   CUMULATIVE VOLUMES               L**3   RATES FOR THIS TIME STEP           L**3/T
   ------------------                      ------------------------

                                     IN                                         IN
                                     --                                         --
        PRECIPITATION =        9897129.71          PRECIPITATION =         157865.04
           STREAMFLOW =                               STREAMFLOW =                  
     GW BOUNDARY FLOW =             37.31       GW BOUNDARY FLOW =              0.86


                                    OUT                                        OUT
                                    ---                                        ---
   EVAPOTRANSPIRATION =        2839993.34     EVAPOTRANSPIRATION =           6975.64
           STREAMFLOW =        2739513.52             STREAMFLOW =          16644.85
     GW BOUNDARY FLOW =           6038.22       GW BOUNDARY FLOW =             35.36

   INFLOWS - OUTFLOWS =        4311621.95     INFLOWS - OUTFLOWS =         134210.05
             --------                                   --------

 TOTAL STORAGE CHANGE =        4314894.18         STORAGE CHANGE =         134228.55
       --------------                             --------------
         LAND SURFACE =        3338153.20           LAND SURFACE =         123394.04
            SOIL ZONE =        3117076.95              SOIL ZONE =          13944.24
     UNSATURATED ZONE =       -2996879.26       UNSATURATED ZONE =          -1258.25
       SATURATED ZONE =         856543.30         SATURATED ZONE =          -1851.48

 OVERALL BUDGET ERROR =          -3272.24           BUDGET ERROR =            -18.50


  PERCENT DISCREPANCY =             -0.03    PERCENT DISCREPANCY =             -0.01



1
 SUMMARY VOLUMETRIC BUDGET FOR GSFLOW 
 DATE: 03 24 1991              CUMULATIVE TIME STEP:      24
 MODFLOW STRESS PERIOD      7     CURRENT TIME STEP:     175     ITERATIONS:       5

 -----------------------------------------------------------------------------------

   CUMULATIVE VOLUMES               L**3   RATES FOR THIS TIME STEP           L**3/T
   ------------------                      ------------------------

                                     IN                                         IN
                                     --                                         --
        PRECIPITATION =        1.1673D+07          PRECIPITATION =        1230031.83
           STREAMFLOW =                               STREAMFLOW =                  
     GW BOUNDARY FLOW =             43.58       GW BOUNDARY FLOW =              0.92


                                    OUT                                        OUT
                                    ---                                        ---
   EVAPOTRANSPIRATION =        2873412.32     EVAPOTRANSPIRATION =           3938.13
           STREAMFLOW =        2859066.14             STREAMFLOW =          17598.54
     GW BOUNDARY FLOW =           6285.27       GW BOUNDARY FLOW =             35.25

   INFLOWS - OUTFLOWS =        5934391.34     INFLOWS - OUTFLOWS =        1208460.84
             --------                                   --------

 TOTAL STORAGE CHANGE =        5937771.88         STORAGE CHANGE =        1208478.38
       --------------                             --------------
         LAND SURFACE =        5073781.79           LAND SURFACE =        1227482.51
            SOIL ZONE =        3027869.73              SOIL ZONE =         -15314.19
     UNSATURATED ZONE =       -3008021.38       UNSATURATED ZONE =          -1947.18
       SATURATED ZONE =         844141.75         SATURATED ZONE =          -1742.76

 OVERALL BUDGET ERROR =          -3380.54           BUDGET ERROR =            -17.54


  PERCENT DISCREPANCY =             -0.03    PERCENT DISCREPANCY =             -0.00



1
 SUMMARY VOLUMETRIC BUDGET FOR GSFLOW 
 DATE: 03 31 1991              CUMULATIVE TIME STEP:      31
 MODFLOW STRESS PERIOD      7     CURRENT TIME STEP:     182     ITERATIONS:       6

 -----------------------------------------------------------------------------------

   CUMULATIVE VOLUMES               L**3   RATES FOR THIS TIME STEP           L**3/T
   ------------------                      ------------------------

                                     IN                                         IN
                                     --                                         --
        PRECIPITATION =        1.2495D+07          PRECIPITATION =                  
           STREAMFLOW =                               STREAMFLOW =                  
     GW BOUNDARY FLOW =             50.24       GW BOUNDARY FLOW =              0.98


                                    OUT                                        OUT
                                    ---                                        ---
   EVAPOTRANSPIRATION =        2981293.51     EVAPOTRANSPIRATION =          44630.25
           STREAMFLOW =        2999177.04             STREAMFLOW =          26072.07
     GW BOUNDARY FLOW =           6531.85       GW BOUNDARY FLOW =             35.28

   INFLOWS - OUTFLOWS =        6508373.13     INFLOWS - OUTFLOWS =         -70736.63
             --------                                   --------

 TOTAL STORAGE CHANGE =        6511851.39         STORAGE CHANGE =         -70727.19
       --------------                             --------------
         LAND SURFACE =        5647574.86           LAND SURFACE =        -132565.95
            SOIL ZONE =        3054396.92              SOIL ZONE =          65955.41
     UNSATURATED ZONE =       -3021877.95       UNSATURATED ZONE =          -2184.04
       SATURATED ZONE =         831757.56         SATURATED ZONE =          -1932.60

 OVERALL BUDGET ERROR =          -3478.26           BUDGET ERROR =             -9.44


  PERCENT DISCREPANCY =             -0.03    PERCENT DISCREPANCY =             -0.01



1
 SUMMARY VOLUMETRIC BUDGET FOR GSFLOW 
 DATE: 04 07 1991              CUMULATIVE TIME STEP:       7
 MODFLOW STRESS PERIOD      8     CURRENT TIME STEP:     189     ITERATIONS:       7

 -----------------------------------------------------------------------------------

   CUMULATIVE VOLUMES               L**3   RATES FOR THIS TIME STEP           L**3/T
   ------------------                      ------------------------

                                     IN                                         IN
                                     --                                         --
        PRECIPITATION =        1.3018D+07          PRECIPITATION =                  
           STREAMFLOW =                               STREAMFLOW =                  
     GW BOUNDARY FLOW =             57.27       GW BOUNDARY FLOW =              1.02


                                    OUT                                        OUT
                                    ---                                        ---
   EVAPOTRANSPIRATION =        3268528.06     EVAPOTRANSPIRATION =          13551.15
           STREAMFLOW =        3346652.17             STREAMFLOW =          53369.96
     GW BOUNDARY FLOW =           6780.56       GW BOUNDARY FLOW =             35.57

   INFLOWS - OUTFLOWS =        6395833.22     INFLOWS - OUTFLOWS =         -66955.66
             --------                                   --------

 TOTAL STORAGE CHANGE =        6399366.89         STORAGE CHANGE =         -66951.13
       --------------                             --------------
         LAND SURFACE =        4116185.85           LAND SURFACE =         -56924.70
            SOIL ZONE =        4458285.45              SOIL ZONE =         -18921.61
     UNSATURATED ZONE =       -2997099.22       UNSATURATED ZONE =           9695.70
       SATURATED ZONE =         821994.82         SATURATED ZONE =           -800.51

 OVERALL BUDGET ERROR =          -3533.67           BUDGET ERROR =             -4.53


  PERCENT DISCREPANCY =             -0.03    PERCENT DISCREPANCY =             -0.01



1
 SUMMARY VOLUMETRIC BUDGET FOR GSFLOW 
 DATE: 04 14 1991              CUMULATIVE TIME STEP:      14
 MODFLOW STRESS PERIOD      8     CURRENT TIME STEP:     196     ITERATIONS:       6

 -----------------------------------------------------------------------------------

   CUMULATIVE VOLUMES               L**3   RATES FOR THIS TIME STEP           L**3/T
   ------------------                      ------------------------

                                     IN                                         IN
                                     --                                         --
        PRECIPITATION =        1.3018D+07          PRECIPITATION =                  
           STREAMFLOW =                               STREAMFLOW =                  
     GW BOUNDARY FLOW =             64.63       GW BOUNDARY FLOW =              1.07


                                    OUT                                        OUT
                                    ---                                        ---
   EVAPOTRANSPIRATION =        3438456.80     EVAPOTRANSPIRATION =          38955.66
           STREAMFLOW =        3806306.76             STREAMFLOW =          73551.62
     GW BOUNDARY FLOW =           7029.98       GW BOUNDARY FLOW =             35.67

   INFLOWS - OUTFLOWS =        5766007.83     INFLOWS - OUTFLOWS =        -112541.88
             --------                                   --------

 TOTAL STORAGE CHANGE =        5769571.84         STORAGE CHANGE =        -112537.08
       --------------                             --------------
         LAND SURFACE =        3541064.90           LAND SURFACE =        -164763.05
            SOIL ZONE =        4344604.35              SOIL ZONE =          44464.15
     UNSATURATED ZONE =       -2935041.29       UNSATURATED ZONE =           7928.38
       SATURATED ZONE =         818943.88         SATURATED ZONE =           -166.55

 OVERALL BUDGET ERROR =          -3564.01           BUDGET ERROR =             -4.80


  PERCENT DISCREPANCY =             -0.03    PERCENT DISCREPANCY =             -0.00



1
 SUMMARY VOLUMETRIC BUDGET FOR GSFLOW 
 DATE: 04 21 1991              CUMULATIVE TIME STEP:      21
 MODFLOW STRESS PERIOD      8     CURRENT TIME STEP:     203     ITERATIONS:       6

 -----------------------------------------------------------------------------------

   CUMULATIVE VOLUMES               L**3   RATES FOR THIS TIME STEP           L**3/T
   ------------------                      ------------------------

                                     IN                                         IN
                                     --                                         --
        PRECIPITATION =        1.3034D+07          PRECIPITATION =                  
           STREAMFLOW =                               STREAMFLOW =                  
     GW BOUNDARY FLOW =             72.29       GW BOUNDARY FLOW =              1.11


                                    OUT                                        OUT
                                    ---                                        ---
   EVAPOTRANSPIRATION =        3670258.65     EVAPOTRANSPIRATION =          43459.74
           STREAMFLOW =        4322456.21             STREAMFLOW =          81346.53
     GW BOUNDARY FLOW =           7279.06       GW BOUNDARY FLOW =             35.62

   INFLOWS - OUTFLOWS =        5034140.47     INFLOWS - OUTFLOWS =        -124840.77
             --------                                   --------

 TOTAL STORAGE CHANGE =        5037735.57         STORAGE CHANGE =        -124837.06
       --------------                             --------------
         LAND SURFACE =        2540683.32           LAND SURFACE =        -195293.54
            SOIL ZONE =        4556605.20              SOIL ZONE =          61023.27
     UNSATURATED ZONE =       -2877096.16       UNSATURATED ZONE =           9481.76
       SATURATED ZONE =         817543.21         SATURATED ZONE =            -48.56

 OVERALL BUDGET ERROR =          -3595.10           BUDGET ERROR =             -3.71


  PERCENT DISCREPANCY =             -0.03    PERCENT DISCREPANCY =             -0.00



1
 SUMMARY VOLUMETRIC BUDGET FOR GSFLOW 
 DATE: 04 28 1991              CUMULATIVE TIME STEP:      28
 MODFLOW STRESS PERIOD      8     CURRENT TIME STEP:     210     ITERATIONS:       6

 -----------------------------------------------------------------------------------

   CUMULATIVE VOLUMES               L**3   RATES FOR THIS TIME STEP           L**3/T
   ------------------                      ------------------------

                                     IN                                         IN
                                     --                                         --
        PRECIPITATION =        1.3303D+07          PRECIPITATION =                  
           STREAMFLOW =                               STREAMFLOW =                  
     GW BOUNDARY FLOW =             80.25       GW BOUNDARY FLOW =              1.15


                                    OUT                                        OUT
                                    ---                                        ---
   EVAPOTRANSPIRATION =        3917216.71     EVAPOTRANSPIRATION =          55283.23
           STREAMFLOW =        4916430.46             STREAMFLOW =          88549.12
     GW BOUNDARY FLOW =           7528.06       GW BOUNDARY FLOW =             35.55

   INFLOWS - OUTFLOWS =        4462335.52     INFLOWS - OUTFLOWS =        -143866.75
             --------                                   --------

 TOTAL STORAGE CHANGE =        4465949.56         STORAGE CHANGE =        -143864.76
       --------------                             --------------
         LAND SURFACE =        1797938.24           LAND SURFACE =        -152903.02
            SOIL ZONE =        4657062.60              SOIL ZONE =          -1190.44
     UNSATURATED ZONE =       -2808539.13       UNSATURATED ZONE =           9824.89
       SATURATED ZONE =         819487.85         SATURATED ZONE =            403.82

 OVERALL BUDGET ERROR =          -3614.03           BUDGET ERROR =             -1.99


  PERCENT DISCREPANCY =             -0.03    PERCENT DISCREPANCY =             -0.00



1
 SUMMARY VOLUMETRIC BUDGET FOR GSFLOW 
 DATE: 05 05 1991              CUMULATIVE TIME STEP:       5
 MODFLOW STRESS PERIOD      9     CURRENT TIME STEP:     217     ITERATIONS:       7

 -----------------------------------------------------------------------------------

   CUMULATIVE VOLUMES               L**3   RATES FOR THIS TIME STEP           L**3/T
   ------------------                      ------------------------

                                     IN                                         IN
                                     --                                         --
        PRECIPITATION =        1.3510D+07          PRECIPITATION =                  
           STREAMFLOW =                               STREAMFLOW =                  
     GW BOUNDARY FLOW =             88.49       GW BOUNDARY FLOW =              1.20


                                    OUT                                        OUT
                                    ---                                        ---
   EVAPOTRANSPIRATION =        4266286.26     EVAPOTRANSPIRATION =          84817.23
           STREAMFLOW =        5478102.96             STREAMFLOW =          78585.60
     GW BOUNDARY FLOW =           7775.68       GW BOUNDARY FLOW =             35.30

   INFLOWS - OUTFLOWS =        3757631.72     INFLOWS - OUTFLOWS =        -163436.93
             --------                                   --------

 TOTAL STORAGE CHANGE =        3761257.45         STORAGE CHANGE =        -163435.27
       --------------                             --------------
         LAND SURFACE =        1121135.55           LAND SURFACE =        -152852.60
            SOIL ZONE =        4563218.43              SOIL ZONE =         -19774.13
     UNSATURATED ZONE =       -2745888.22       UNSATURATED ZONE =           8650.57
       SATURATED ZONE =         822791.70         SATURATED ZONE =            540.89

 OVERALL BUDGET ERROR =          -3625.73           BUDGET ERROR =             -1.66


  PERCENT DISCREPANCY =             -0.03    PERCENT DISCREPANCY =             -0.00



1
 SUMMARY VOLUMETRIC BUDGET FOR GSFLOW 
 DATE: 05 12 1991              CUMULATIVE TIME STEP:      12
 MODFLOW STRESS PERIOD      9     CURRENT TIME STEP:     224     ITERATIONS:       7

 -----------------------------------------------------------------------------------

   CUMULATIVE VOLUMES               L**3   RATES FOR THIS TIME STEP           L**3/T
   ------------------                      ------------------------

                                     IN                                         IN
                                     --                                         --
        PRECIPITATION =        1.4029D+07          PRECIPITATION =                  
           STREAMFLOW =                               STREAMFLOW =                  
     GW BOUNDARY FLOW =             97.04       GW BOUNDARY FLOW =              1.24


                                    OUT                                        OUT
                                    ---                                        ---
   EVAPOTRANSPIRATION =        4636215.22     EVAPOTRANSPIRATION =          62594.93
           STREAMFLOW =        6018900.40             STREAMFLOW =          70428.67
     GW BOUNDARY FLOW =           8022.01       GW BOUNDARY FLOW =             35.06

   INFLOWS - OUTFLOWS =        3366181.57     INFLOWS - OUTFLOWS =        -133057.43
             --------                                   --------

 TOTAL STORAGE CHANGE =        3369812.97         STORAGE CHANGE =        -133056.97
       --------------                             --------------
         LAND SURFACE =         710447.91           LAND SURFACE =         -96049.30
            SOIL ZONE =        4522088.66              SOIL ZONE =         -44878.86
     UNSATURATED ZONE =       -2693136.02       UNSATURATED ZONE =           6906.23
       SATURATED ZONE =         830412.43         SATURATED ZONE =            964.95

 OVERALL BUDGET ERROR =          -3631.40           BUDGET ERROR =             -0.45


  PERCENT DISCREPANCY =             -0.03    PERCENT DISCREPANCY =             -0.00



1
 SUMMARY VOLUMETRIC BUDGET FOR GSFLOW 
 DATE: 05 19 1991              CUMULATIVE TIME STEP:      19
 MODFLOW STRESS PERIOD      9     CURRENT TIME STEP:     231     ITERATIONS:       6

 -----------------------------------------------------------------------------------

   CUMULATIVE VOLUMES               L**3   RATES FOR THIS TIME STEP           L**3/T
   ------------------                      ------------------------

                                     IN                                         IN
                                     --                                         --
        PRECIPITATION =        1.4365D+07          PRECIPITATION =                  
           STREAMFLOW =                               STREAMFLOW =                  
     GW BOUNDARY FLOW =            105.89       GW BOUNDARY FLOW =              1.28


                                    OUT                                        OUT
                                    ---                                        ---
   EVAPOTRANSPIRATION =        5036324.06     EVAPOTRANSPIRATION =          17977.42
           STREAMFLOW =        6446694.27             STREAMFLOW =          54059.85
     GW BOUNDARY FLOW =           8266.08       GW BOUNDARY FLOW =             34.72

   INFLOWS - OUTFLOWS =        2874199.79     INFLOWS - OUTFLOWS =         -72070.71
             --------                                   --------

 TOTAL STORAGE CHANGE =        2877832.52         STORAGE CHANGE =         -72070.58
       --------------                             --------------
         LAND SURFACE =         410881.34           LAND SURFACE =         -28850.07
            SOIL ZONE =        4284586.93              SOIL ZONE =         -48180.36
     UNSATURATED ZONE =       -2653404.52       UNSATURATED ZONE =           4484.29
       SATURATED ZONE =         835768.77         SATURATED ZONE =            475.56

 OVERALL BUDGET ERROR =          -3632.73           BUDGET ERROR =             -0.13


  PERCENT DISCREPANCY =             -0.03    PERCENT DISCREPANCY =             -0.00



1
 SUMMARY VOLUMETRIC BUDGET FOR GSFLOW 
 DATE: 05 26 1991              CUMULATIVE TIME STEP:      26
 MODFLOW STRESS PERIOD      9     CURRENT TIME STEP:     238     ITERATIONS:       6

 -----------------------------------------------------------------------------------

   CUMULATIVE VOLUMES               L**3   RATES FOR THIS TIME STEP           L**3/T
   ------------------                      ------------------------

                                     IN                                         IN
                                     --                                         --
        PRECIPITATION =        1.4426D+07          PRECIPITATION =                  
           STREAMFLOW =                               STREAMFLOW =                  
     GW BOUNDARY FLOW =            115.04       GW BOUNDARY FLOW =              1.33


                                    OUT                                        OUT
                                    ---                                        ---
   EVAPOTRANSPIRATION =        5683679.44     EVAPOTRANSPIRATION =          71093.69
           STREAMFLOW =        6755769.27             STREAMFLOW =          32126.05
     GW BOUNDARY FLOW =           8507.60       GW BOUNDARY FLOW =             34.27

   INFLOWS - OUTFLOWS =        1978656.33     INFLOWS - OUTFLOWS =        -103252.69
             --------                                   --------

 TOTAL STORAGE CHANGE =        1982290.90         STORAGE CHANGE =        -103251.38
       --------------                             --------------
         LAND SURFACE =         137693.50           LAND SURFACE =         -13707.53
            SOIL ZONE =        3642146.75              SOIL ZONE =         -89485.12
     UNSATURATED ZONE =       -2635594.49       UNSATURATED ZONE =           -108.55
       SATURATED ZONE =         838045.14         SATURATED ZONE =             49.83

 OVERALL BUDGET ERROR =          -3634.57           BUDGET ERROR =             -1.31


  PERCENT DISCREPANCY =             -0.03    PERCENT DISCREPANCY =             -0.00



1
 SUMMARY VOLUMETRIC BUDGET FOR GSFLOW 
 DATE: 06 02 1991              CUMULATIVE TIME STEP:       2
 MODFLOW STRESS PERIOD     10     CURRENT TIME STEP:     245     ITERATIONS:       7

 -----------------------------------------------------------------------------------

   CUMULATIVE VOLUMES               L**3   RATES FOR THIS TIME STEP           L**3/T
   ------------------                      ------------------------

                                     IN                                         IN
                                     --                                         --
        PRECIPITATION =        1.4671D+07          PRECIPITATION =                  
           STREAMFLOW =                               STREAMFLOW =                  
     GW BOUNDARY FLOW =            124.49       GW BOUNDARY FLOW =              1.37


                                    OUT                                        OUT
                                    ---                                        ---
   EVAPOTRANSPIRATION =        6228626.11     EVAPOTRANSPIRATION =         119396.93
           STREAMFLOW =        6976931.70             STREAMFLOW =          27161.68
     GW BOUNDARY FLOW =           8746.85       GW BOUNDARY FLOW =             34.04

   INFLOWS - OUTFLOWS =        1456794.63     INFLOWS - OUTFLOWS =        -146591.28
             --------                                   --------

 TOTAL STORAGE CHANGE =        1460445.62         STORAGE CHANGE =        -146588.78
       --------------                             --------------
         LAND SURFACE =          65228.73           LAND SURFACE =         -11414.61
            SOIL ZONE =        3206625.40              SOIL ZONE =        -132046.58
     UNSATURATED ZONE =       -2648181.77       UNSATURATED ZONE =          -2714.96
       SATURATED ZONE =         836773.26         SATURATED ZONE =           -412.63

 OVERALL BUDGET ERROR =          -3650.99           BUDGET ERROR =             -2.50


  PERCENT DISCREPANCY =             -0.02    PERCENT DISCREPANCY =             -0.00



1
 SUMMARY VOLUMETRIC BUDGET FOR GSFLOW 
 DATE: 06 09 1991              CUMULATIVE TIME STEP:       9
 MODFLOW STRESS PERIOD     10     CURRENT TIME STEP:     252     ITERATIONS:       6

 -----------------------------------------------------------------------------------

   CUMULATIVE VOLUMES               L**3   RATES FOR THIS TIME STEP           L**3/T
   ------------------                      ------------------------

                                     IN                                         IN
                                     --                                         --
        PRECIPITATION =        1.4671D+07          PRECIPITATION =                  
           STREAMFLOW =                               STREAMFLOW =                  
     GW BOUNDARY FLOW =            134.25       GW BOUNDARY FLOW =              1.41


                                    OUT                                        OUT
                                    ---                                        ---
   EVAPOTRANSPIRATION =        6945035.82     EVAPOTRANSPIRATION =         166531.68
           STREAMFLOW =        7136874.91             STREAMFLOW =          19417.70
     GW BOUNDARY FLOW =           8983.94       GW BOUNDARY FLOW =             33.74

   INFLOWS - OUTFLOWS =         580214.37     INFLOWS - OUTFLOWS =        -185981.71
             --------                                   --------

 TOTAL STORAGE CHANGE =         583898.65         STORAGE CHANGE =        -185974.67
       --------------                             --------------
         LAND SURFACE =          17498.47           LAND SURFACE =          -7585.85
            SOIL ZONE =        2417619.50              SOIL ZONE =        -171031.39
     UNSATURATED ZONE =       -2681138.21       UNSATURATED ZONE =          -5872.36
       SATURATED ZONE =         829918.90         SATURATED ZONE =          -1485.06

 OVERALL BUDGET ERROR =          -3684.28           BUDGET ERROR =             -7.04


  PERCENT DISCREPANCY =             -0.03    PERCENT DISCREPANCY =             -0.00



1
 SUMMARY VOLUMETRIC BUDGET FOR GSFLOW 
 DATE: 06 16 1991              CUMULATIVE TIME STEP:      16
 MODFLOW STRESS PERIOD     10     CURRENT TIME STEP:     259     ITERATIONS:       6

 -----------------------------------------------------------------------------------

   CUMULATIVE VOLUMES               L**3   RATES FOR THIS TIME STEP           L**3/T
   ------------------                      ------------------------

                                     IN                                         IN
                                     --                                         --
        PRECIPITATION =        1.4671D+07          PRECIPITATION =                  
           STREAMFLOW =                               STREAMFLOW =                  
     GW BOUNDARY FLOW =            144.31       GW BOUNDARY FLOW =              1.46


                                    OUT                                        OUT
                                    ---                                        ---
   EVAPOTRANSPIRATION =        7902540.19     EVAPOTRANSPIRATION =         107699.83
           STREAMFLOW =        7257897.40             STREAMFLOW =          16692.59
     GW BOUNDARY FLOW =           9219.19       GW BOUNDARY FLOW =             33.53

   INFLOWS - OUTFLOWS =        -498537.67     INFLOWS - OUTFLOWS =        -124424.49
             --------                                   --------

 TOTAL STORAGE CHANGE =        -494792.00         STORAGE CHANGE =        -124415.25
       --------------                             --------------
         LAND SURFACE =            705.51           LAND SURFACE =           -399.79
            SOIL ZONE =        1448013.63              SOIL ZONE =        -106703.40
     UNSATURATED ZONE =       -2757921.13       UNSATURATED ZONE =         -14359.99
       SATURATED ZONE =         814409.99         SATURATED ZONE =          -2952.08

 OVERALL BUDGET ERROR =          -3745.67           BUDGET ERROR =             -9.24


  PERCENT DISCREPANCY =             -0.02    PERCENT DISCREPANCY =             -0.01



1
 SUMMARY VOLUMETRIC BUDGET FOR GSFLOW 
 DATE: 06 23 1991              CUMULATIVE TIME STEP:      23
 MODFLOW STRESS PERIOD     10     CURRENT TIME STEP:     266     ITERATIONS:       5

 -----------------------------------------------------------------------------------

   CUMULATIVE VOLUMES               L**3   RATES FOR THIS TIME STEP           L**3/T
   ------------------                      ------------------------

                                     IN                                         IN
                                     --                                         --
        PRECIPITATION =        1.4671D+07          PRECIPITATION =                  
           STREAMFLOW =                               STREAMFLOW =                  
     GW BOUNDARY FLOW =            154.61       GW BOUNDARY FLOW =              1.46


                                    OUT                                        OUT
                                    ---                                        ---
   EVAPOTRANSPIRATION =        8374303.69     EVAPOTRANSPIRATION =          33679.10
           STREAMFLOW =        7343478.82             STREAMFLOW =          16440.83
     GW BOUNDARY FLOW =           9452.52       GW BOUNDARY FLOW =             33.38

   INFLOWS - OUTFLOWS =       -1056105.62     INFLOWS - OUTFLOWS =         -50151.85
             --------                                   --------

 TOTAL STORAGE CHANGE =       -1052303.14         STORAGE CHANGE =         -50134.19
       --------------                             --------------
         LAND SURFACE =             27.33           LAND SURFACE =             -3.89
            SOIL ZONE =        1017719.50              SOIL ZONE =         -34518.39
     UNSATURATED ZONE =       -2854475.82       UNSATURATED ZONE =         -11624.79
       SATURATED ZONE =         784425.85         SATURATED ZONE =          -3987.12

 OVERALL BUDGET ERROR =          -3802.48           BUDGET ERROR =            -17.66


  PERCENT DISCREPANCY =             -0.02    PERCENT DISCREPANCY =             -0.04



1
 SUMMARY VOLUMETRIC BUDGET FOR GSFLOW 
 DATE: 06 30 1991              CUMULATIVE TIME STEP:      30
 MODFLOW STRESS PERIOD     10     CURRENT TIME STEP:     273     ITERATIONS:       5

 -----------------------------------------------------------------------------------

   CUMULATIVE VOLUMES               L**3   RATES FOR THIS TIME STEP           L**3/T
   ------------------                      ------------------------

                                     IN                                         IN
[...]
                                    ---                                        ---
   EVAPOTRANSPIRATION =        1.4264D+08     EVAPOTRANSPIRATION =          15496.78
           STREAMFLOW =        1.2291D+08             STREAMFLOW =           2866.41
     GW BOUNDARY FLOW =          95496.22       GW BOUNDARY FLOW =             21.76

   INFLOWS - OUTFLOWS =       -2.5633D+07     INFLOWS - OUTFLOWS =         -18378.76
             --------                                   --------

 TOTAL STORAGE CHANGE =       -2.5617D+07         STORAGE CHANGE =         -18377.11
       --------------                             --------------
         LAND SURFACE =                             LAND SURFACE =                  
            SOIL ZONE =       -1970294.17              SOIL ZONE =          -4407.99
     UNSATURATED ZONE =         357934.23       UNSATURATED ZONE =          -1732.23
       SATURATED ZONE =       -2.4004D+07         SATURATED ZONE =         -12236.90

 OVERALL BUDGET ERROR =         -16568.91           BUDGET ERROR =             -1.65


  PERCENT DISCREPANCY =             -0.01    PERCENT DISCREPANCY =             -0.01



1
 SUMMARY VOLUMETRIC BUDGET FOR GSFLOW 
 DATE: 09 03 2000              CUMULATIVE TIME STEP:       3
 MODFLOW STRESS PERIOD    121     CURRENT TIME STEP:    3626     ITERATIONS:       8

 -----------------------------------------------------------------------------------

   CUMULATIVE VOLUMES               L**3   RATES FOR THIS TIME STEP           L**3/T
   ------------------                      ------------------------

                                     IN                                         IN
                                     --                                         --
        PRECIPITATION =        2.4013D+08          PRECIPITATION =                  
           STREAMFLOW =                               STREAMFLOW =                  
     GW BOUNDARY FLOW =          14958.65       GW BOUNDARY FLOW =              6.19


                                    OUT                                        OUT
                                    ---                                        ---
   EVAPOTRANSPIRATION =        1.4272D+08     EVAPOTRANSPIRATION =          28557.93
           STREAMFLOW =        1.2294D+08             STREAMFLOW =           6664.83
     GW BOUNDARY FLOW =          95649.91       GW BOUNDARY FLOW =             22.20

   INFLOWS - OUTFLOWS =       -2.5619D+07     INFLOWS - OUTFLOWS =         -35238.77
             --------                                   --------

 TOTAL STORAGE CHANGE =       -2.5602D+07         STORAGE CHANGE =         -35239.38
       --------------                             --------------
         LAND SURFACE =           8198.00           LAND SURFACE =         -28500.39
            SOIL ZONE =       -1891218.59              SOIL ZONE =             -1.46
     UNSATURATED ZONE =         346006.20       UNSATURATED ZONE =          -1621.10
       SATURATED ZONE =       -2.4065D+07         SATURATED ZONE =          -5116.43

 OVERALL BUDGET ERROR =         -16570.41           BUDGET ERROR =              0.61


  PERCENT DISCREPANCY =             -0.01    PERCENT DISCREPANCY =              0.00



1
 SUMMARY VOLUMETRIC BUDGET FOR GSFLOW 
 DATE: 09 10 2000              CUMULATIVE TIME STEP:      10
 MODFLOW STRESS PERIOD    121     CURRENT TIME STEP:    3633     ITERATIONS:      13

 -----------------------------------------------------------------------------------

   CUMULATIVE VOLUMES               L**3   RATES FOR THIS TIME STEP           L**3/T
   ------------------                      ------------------------

                                     IN                                         IN
                                     --                                         --
        PRECIPITATION =        2.4013D+08          PRECIPITATION =                  
           STREAMFLOW =                               STREAMFLOW =                  
     GW BOUNDARY FLOW =          15001.99       GW BOUNDARY FLOW =              6.19


                                    OUT                                        OUT
                                    ---                                        ---
   EVAPOTRANSPIRATION =        1.4281D+08     EVAPOTRANSPIRATION =          10765.28
           STREAMFLOW =        1.2298D+08             STREAMFLOW =           4498.71
     GW BOUNDARY FLOW =          95803.95       GW BOUNDARY FLOW =             21.98

   INFLOWS - OUTFLOWS =       -2.5736D+07     INFLOWS - OUTFLOWS =         -15279.78
             --------                                   --------

 TOTAL STORAGE CHANGE =       -2.5720D+07         STORAGE CHANGE =         -15279.06
       --------------                             --------------
         LAND SURFACE =                             LAND SURFACE =                  
            SOIL ZONE =       -1927036.01              SOIL ZONE =          -4546.71
     UNSATURATED ZONE =         334132.40       UNSATURATED ZONE =          -1714.21
       SATURATED ZONE =       -2.4127D+07         SATURATED ZONE =          -9018.14

 OVERALL BUDGET ERROR =         -16577.23           BUDGET ERROR =             -0.72


  PERCENT DISCREPANCY =             -0.01    PERCENT DISCREPANCY =             -0.00



1
 SUMMARY VOLUMETRIC BUDGET FOR GSFLOW 
 DATE: 09 17 2000              CUMULATIVE TIME STEP:      17
 MODFLOW STRESS PERIOD    121     CURRENT TIME STEP:    3640     ITERATIONS:       7

 -----------------------------------------------------------------------------------

   CUMULATIVE VOLUMES               L**3   RATES FOR THIS TIME STEP           L**3/T
   ------------------                      ------------------------

                                     IN                                         IN
                                     --                                         --
        PRECIPITATION =        2.4013D+08          PRECIPITATION =                  
           STREAMFLOW =                               STREAMFLOW =                  
     GW BOUNDARY FLOW =          15045.38       GW BOUNDARY FLOW =              6.20


                                    OUT                                        OUT
                                    ---                                        ---
   EVAPOTRANSPIRATION =        1.4289D+08     EVAPOTRANSPIRATION =          10695.13
           STREAMFLOW =        1.2301D+08             STREAMFLOW =           4194.50
     GW BOUNDARY FLOW =          95957.38       GW BOUNDARY FLOW =             21.93

   INFLOWS - OUTFLOWS =       -2.5850D+07     INFLOWS - OUTFLOWS =         -14905.37
             --------                                   --------

 TOTAL STORAGE CHANGE =       -2.5833D+07         STORAGE CHANGE =         -14903.95
       --------------                             --------------
         LAND SURFACE =                             LAND SURFACE =                  
            SOIL ZONE =       -1956285.13              SOIL ZONE =          -3100.13
     UNSATURATED ZONE =         322430.26       UNSATURATED ZONE =          -1642.52
       SATURATED ZONE =       -2.4199D+07         SATURATED ZONE =         -10161.29

 OVERALL BUDGET ERROR =         -16580.29           BUDGET ERROR =             -1.42


  PERCENT DISCREPANCY =             -0.01    PERCENT DISCREPANCY =             -0.01



1
 SUMMARY VOLUMETRIC BUDGET FOR GSFLOW 
 DATE: 09 24 2000              CUMULATIVE TIME STEP:      24
 MODFLOW STRESS PERIOD    121     CURRENT TIME STEP:    3647     ITERATIONS:       4

 -----------------------------------------------------------------------------------

   CUMULATIVE VOLUMES               L**3   RATES FOR THIS TIME STEP           L**3/T
   ------------------                      ------------------------

                                     IN                                         IN
                                     --                                         --
        PRECIPITATION =        2.4013D+08          PRECIPITATION =                  
           STREAMFLOW =                               STREAMFLOW =                  
     GW BOUNDARY FLOW =          15088.82       GW BOUNDARY FLOW =              6.21


                                    OUT                                        OUT
                                    ---                                        ---
   EVAPOTRANSPIRATION =        1.4295D+08     EVAPOTRANSPIRATION =           5213.50
           STREAMFLOW =        1.2304D+08             STREAMFLOW =           5423.60
     GW BOUNDARY FLOW =          96111.23       GW BOUNDARY FLOW =             22.06

   INFLOWS - OUTFLOWS =       -2.5939D+07     INFLOWS - OUTFLOWS =         -10652.96
             --------                                   --------

 TOTAL STORAGE CHANGE =       -2.5922D+07         STORAGE CHANGE =         -10635.78
       --------------                             --------------
         LAND SURFACE =                             LAND SURFACE =                  
            SOIL ZONE =       -1970184.09              SOIL ZONE =          -1117.70
     UNSATURATED ZONE =         311238.93       UNSATURATED ZONE =          -1573.39
       SATURATED ZONE =       -2.4263D+07         SATURATED ZONE =          -7944.69

 OVERALL BUDGET ERROR =         -16600.10           BUDGET ERROR =            -17.18


  PERCENT DISCREPANCY =             -0.01    PERCENT DISCREPANCY =             -0.16



1
 SUMMARY VOLUMETRIC BUDGET FOR GSFLOW 
 DATE: 10 01 2000              CUMULATIVE TIME STEP:       1
 MODFLOW STRESS PERIOD    122     CURRENT TIME STEP:    3654     ITERATIONS:       9

 -----------------------------------------------------------------------------------

   CUMULATIVE VOLUMES               L**3   RATES FOR THIS TIME STEP           L**3/T
   ------------------                      ------------------------

                                     IN                                         IN
                                     --                                         --
        PRECIPITATION =        2.4013D+08          PRECIPITATION =                  
           STREAMFLOW =                               STREAMFLOW =                  
     GW BOUNDARY FLOW =          15132.30       GW BOUNDARY FLOW =              6.21


                                    OUT                                        OUT
                                    ---                                        ---
   EVAPOTRANSPIRATION =        1.4301D+08     EVAPOTRANSPIRATION =           8397.68
           STREAMFLOW =        1.2307D+08             STREAMFLOW =           4492.79
     GW BOUNDARY FLOW =          96264.97       GW BOUNDARY FLOW =             21.96

   INFLOWS - OUTFLOWS =       -2.6031D+07     INFLOWS - OUTFLOWS =         -12906.22
             --------                                   --------

 TOTAL STORAGE CHANGE =       -2.6014D+07         STORAGE CHANGE =         -12906.63
       --------------                             --------------
         LAND SURFACE =                             LAND SURFACE =                  
            SOIL ZONE =       -1982634.21              SOIL ZONE =          -1624.22
     UNSATURATED ZONE =         297108.51       UNSATURATED ZONE =          -1633.23
       SATURATED ZONE =       -2.4329D+07         SATURATED ZONE =          -9649.17

 OVERALL BUDGET ERROR =         -16599.53           BUDGET ERROR =              0.40


  PERCENT DISCREPANCY =             -0.01    PERCENT DISCREPANCY =              0.00



1
 SUMMARY VOLUMETRIC BUDGET FOR GSFLOW 
 DATE: 10 08 2000              CUMULATIVE TIME STEP:       8
 MODFLOW STRESS PERIOD    122     CURRENT TIME STEP:    3661     ITERATIONS:       4

 -----------------------------------------------------------------------------------

   CUMULATIVE VOLUMES               L**3   RATES FOR THIS TIME STEP           L**3/T
   ------------------                      ------------------------

                                     IN                                         IN
                                     --                                         --
        PRECIPITATION =        2.4013D+08          PRECIPITATION =                  
           STREAMFLOW =                               STREAMFLOW =                  
     GW BOUNDARY FLOW =          15175.82       GW BOUNDARY FLOW =              6.22


                                    OUT                                        OUT
                                    ---                                        ---
   EVAPOTRANSPIRATION =        1.4306D+08     EVAPOTRANSPIRATION =           7048.18
           STREAMFLOW =        1.2310D+08             STREAMFLOW =           4889.72
     GW BOUNDARY FLOW =          96418.91       GW BOUNDARY FLOW =             22.00

   INFLOWS - OUTFLOWS =       -2.6116D+07     INFLOWS - OUTFLOWS =         -11953.69
             --------                                   --------

 TOTAL STORAGE CHANGE =       -2.6099D+07         STORAGE CHANGE =         -11936.15
       --------------                             --------------
         LAND SURFACE =                             LAND SURFACE =                  
            SOIL ZONE =       -1991844.47              SOIL ZONE =          -1204.33
     UNSATURATED ZONE =         285015.80       UNSATURATED ZONE =          -1632.55
       SATURATED ZONE =       -2.4392D+07         SATURATED ZONE =          -9099.27

 OVERALL BUDGET ERROR =         -16617.97           BUDGET ERROR =            -17.53


  PERCENT DISCREPANCY =             -0.01    PERCENT DISCREPANCY =             -0.15



1
 SUMMARY VOLUMETRIC BUDGET FOR GSFLOW 
 DATE: 10 15 2000              CUMULATIVE TIME STEP:      15
 MODFLOW STRESS PERIOD    122     CURRENT TIME STEP:    3668     ITERATIONS:       4

 -----------------------------------------------------------------------------------

   CUMULATIVE VOLUMES               L**3   RATES FOR THIS TIME STEP           L**3/T
   ------------------                      ------------------------

                                     IN                                         IN
                                     --                                         --
        PRECIPITATION =        2.4034D+08          PRECIPITATION =                  
           STREAMFLOW =                               STREAMFLOW =                  
     GW BOUNDARY FLOW =          15219.38       GW BOUNDARY FLOW =              6.22


                                    OUT                                        OUT
                                    ---                                        ---
   EVAPOTRANSPIRATION =        1.4312D+08     EVAPOTRANSPIRATION =           7499.97
           STREAMFLOW =        1.2315D+08             STREAMFLOW =           6237.90
     GW BOUNDARY FLOW =          96574.31       GW BOUNDARY FLOW =             22.16

   INFLOWS - OUTFLOWS =       -2.6007D+07     INFLOWS - OUTFLOWS =         -13753.80
             --------                                   --------

 TOTAL STORAGE CHANGE =       -2.5990D+07         STORAGE CHANGE =         -13736.59
       --------------                             --------------
         LAND SURFACE =             11.88           LAND SURFACE =            -60.12
            SOIL ZONE =       -1827839.46              SOIL ZONE =          -4847.77
     UNSATURATED ZONE =         273668.80       UNSATURATED ZONE =          -1643.90
       SATURATED ZONE =       -2.4436D+07         SATURATED ZONE =          -7184.80

 OVERALL BUDGET ERROR =         -16646.91           BUDGET ERROR =            -17.21


  PERCENT DISCREPANCY =             -0.01    PERCENT DISCREPANCY =             -0.13



1
 SUMMARY VOLUMETRIC BUDGET FOR GSFLOW 
 DATE: 10 22 2000              CUMULATIVE TIME STEP:      22
 MODFLOW STRESS PERIOD    122     CURRENT TIME STEP:    3675     ITERATIONS:       5

 -----------------------------------------------------------------------------------

   CUMULATIVE VOLUMES               L**3   RATES FOR THIS TIME STEP           L**3/T
   ------------------                      ------------------------

                                     IN                                         IN
                                     --                                         --
        PRECIPITATION =        2.4039D+08          PRECIPITATION =                  
           STREAMFLOW =                               STREAMFLOW =                  
     GW BOUNDARY FLOW =          15262.97       GW BOUNDARY FLOW =              6.23


                                    OUT                                        OUT
                                    ---                                        ---
   EVAPOTRANSPIRATION =        1.4318D+08     EVAPOTRANSPIRATION =           8693.71
           STREAMFLOW =        1.2319D+08             STREAMFLOW =           7210.99
     GW BOUNDARY FLOW =          96729.64       GW BOUNDARY FLOW =             22.29

   INFLOWS - OUTFLOWS =       -2.6064D+07     INFLOWS - OUTFLOWS =         -15920.76
             --------                                   --------

 TOTAL STORAGE CHANGE =       -2.6047D+07         STORAGE CHANGE =         -15916.06
       --------------                             --------------
         LAND SURFACE =          14940.20           LAND SURFACE =          -8673.07
            SOIL ZONE =       -1839658.19              SOIL ZONE =             33.08
     UNSATURATED ZONE =         262493.46       UNSATURATED ZONE =          -1498.79
       SATURATED ZONE =       -2.4485D+07         SATURATED ZONE =          -5777.28

 OVERALL BUDGET ERROR =         -16676.42           BUDGET ERROR =             -4.70


  PERCENT DISCREPANCY =             -0.01    PERCENT DISCREPANCY =             -0.03



1
 SUMMARY VOLUMETRIC BUDGET FOR GSFLOW 
 DATE: 10 29 2000              CUMULATIVE TIME STEP:      29
 MODFLOW STRESS PERIOD    122     CURRENT TIME STEP:    3682     ITERATIONS:       5

 -----------------------------------------------------------------------------------

   CUMULATIVE VOLUMES               L**3   RATES FOR THIS TIME STEP           L**3/T
   ------------------                      ------------------------

                                     IN                                         IN
                                     --                                         --
        PRECIPITATION =        2.4111D+08          PRECIPITATION =          24578.20
           STREAMFLOW =                               STREAMFLOW =                  
     GW BOUNDARY FLOW =          15306.59       GW BOUNDARY FLOW =              6.23


                                    OUT                                        OUT
                                    ---                                        ---
   EVAPOTRANSPIRATION =        1.4322D+08     EVAPOTRANSPIRATION =           4121.04
           STREAMFLOW =        1.2324D+08             STREAMFLOW =           7200.17
     GW BOUNDARY FLOW =          96885.62       GW BOUNDARY FLOW =             22.32

   INFLOWS - OUTFLOWS =       -2.5431D+07     INFLOWS - OUTFLOWS =          13240.91
             --------                                   --------

 TOTAL STORAGE CHANGE =       -2.5414D+07         STORAGE CHANGE =          13245.52
       --------------                             --------------
         LAND SURFACE =         498945.50           LAND SURFACE =          15332.79
            SOIL ZONE =       -1636347.23              SOIL ZONE =           5405.71
     UNSATURATED ZONE =         251493.12       UNSATURATED ZONE =          -1587.15
       SATURATED ZONE =       -2.4528D+07         SATURATED ZONE =          -5905.83

 OVERALL BUDGET ERROR =         -16697.83           BUDGET ERROR =             -4.61


  PERCENT DISCREPANCY =             -0.01    PERCENT DISCREPANCY =             -0.02



