1
 SUMMARY VOLUMETRIC BUDGET FOR GSFLOW 
 DATE: 10 07 1990              CUMULATIVE TIME STEP:       7
 MODFLOW STRESS PERIOD      2     CURRENT TIME STEP:       7     ITERATIONS:       9

 -----------------------------------------------------------------------------------

   CUMULATIVE VOLUMES               L**3   RATES FOR THIS TIME STEP           L**3/T
   ------------------                      ------------------------

                                     IN                                         IN
                                     --                                         --
        PRECIPITATION =                            PRECIPITATION =                  
           STREAMFLOW =                               STREAMFLOW =                  
     GW BOUNDARY FLOW =                         GW BOUNDARY FLOW =                  


                                    OUT                                        OUT
                                    ---                                        ---
   EVAPOTRANSPIRATION =         397599.09     EVAPOTRANSPIRATION =          12333.35
           STREAMFLOW =          57562.68             STREAMFLOW =           9072.50
     GW BOUNDARY FLOW =            253.94       GW BOUNDARY FLOW =             36.37

   INFLOWS - OUTFLOWS =        -455415.71     INFLOWS - OUTFLOWS =         -21442.22
             --------                                   --------

 TOTAL STORAGE CHANGE =        -454626.75         STORAGE CHANGE =         -21381.59
       --------------                             --------------
         LAND SURFACE =                             LAND SURFACE =                  
            SOIL ZONE =        -368053.70              SOIL ZONE =          -7543.42
     UNSATURATED ZONE =        -239802.47       UNSATURATED ZONE =         -31881.62
       SATURATED ZONE =         153229.42         SATURATED ZONE =          18043.45

 OVERALL BUDGET ERROR =           -788.95           BUDGET ERROR =            -60.63


  PERCENT DISCREPANCY =             -0.17    PERCENT DISCREPANCY =             -0.28



1
 SUMMARY VOLUMETRIC BUDGET FOR GSFLOW 
 DATE: 10 14 1990              CUMULATIVE TIME STEP:      14
 MODFLOW STRESS PERIOD      2     CURRENT TIME STEP:      14     ITERATIONS:       6

 -----------------------------------------------------------------------------------

   CUMULATIVE VOLUMES               L**3   RATES FOR THIS TIME STEP           L**3/T
   ------------------                      ------------------------

                                     IN                                         IN
                                     --                                         --
        PRECIPITATION =                            PRECIPITATION =                  
           STREAMFLOW =                               STREAMFLOW =                  
     GW BOUNDARY FLOW =                         GW BOUNDARY FLOW =                  


                                    OUT                                        OUT
                                    ---                                        ---
   EVAPOTRANSPIRATION =         720567.98     EVAPOTRANSPIRATION =          58658.13
           STREAMFLOW =         119498.88             STREAMFLOW =           8967.65
     GW BOUNDARY FLOW =            508.52       GW BOUNDARY FLOW =             36.39

   INFLOWS - OUTFLOWS =        -840575.37     INFLOWS - OUTFLOWS =         -67662.16
             --------                                   --------

 TOTAL STORAGE CHANGE =        -839342.02         STORAGE CHANGE =         -67608.84
       --------------                             --------------
         LAND SURFACE =                             LAND SURFACE =                  
            SOIL ZONE =        -557571.61              SOIL ZONE =         -33991.16
     UNSATURATED ZONE =        -531311.88       UNSATURATED ZONE =         -44999.86
       SATURATED ZONE =         249541.46         SATURATED ZONE =          11382.19

 OVERALL BUDGET ERROR =          -1233.35           BUDGET ERROR =            -53.33


  PERCENT DISCREPANCY =             -0.15    PERCENT DISCREPANCY =             -0.08



1
 SUMMARY VOLUMETRIC BUDGET FOR GSFLOW 
 DATE: 10 21 1990              CUMULATIVE TIME STEP:      21
 MODFLOW STRESS PERIOD      2     CURRENT TIME STEP:      21     ITERATIONS:       6

 -----------------------------------------------------------------------------------

   CUMULATIVE VOLUMES               L**3   RATES FOR THIS TIME STEP           L**3/T
   ------------------                      ------------------------

                                     IN                                         IN
                                     --                                         --
        PRECIPITATION =         188432.87          PRECIPITATION =                  
           STREAMFLOW =                               STREAMFLOW =                  
     GW BOUNDARY FLOW =                         GW BOUNDARY FLOW =                  


                                    OUT                                        OUT
                                    ---                                        ---
   EVAPOTRANSPIRATION =         939831.02     EVAPOTRANSPIRATION =          40284.60
           STREAMFLOW =         187608.77             STREAMFLOW =          10081.34
     GW BOUNDARY FLOW =            763.71       GW BOUNDARY FLOW =             36.47

   INFLOWS - OUTFLOWS =        -939770.63     INFLOWS - OUTFLOWS =         -50402.42
             --------                                   --------

 TOTAL STORAGE CHANGE =        -938279.33         STORAGE CHANGE =         -50372.71
       --------------                             --------------
         LAND SURFACE =            440.00           LAND SURFACE =         -25669.46
            SOIL ZONE =        -509796.59              SOIL ZONE =          -8314.76
     UNSATURATED ZONE =        -759925.04       UNSATURATED ZONE =         -28141.76
       SATURATED ZONE =         331002.29         SATURATED ZONE =          11753.27

 OVERALL BUDGET ERROR =          -1491.30           BUDGET ERROR =            -29.71


  PERCENT DISCREPANCY =             -0.13    PERCENT DISCREPANCY =             -0.06



1
 SUMMARY VOLUMETRIC BUDGET FOR GSFLOW 
 DATE: 10 28 1990              CUMULATIVE TIME STEP:      28
 MODFLOW STRESS PERIOD      2     CURRENT TIME STEP:      28     ITERATIONS:       6

 -----------------------------------------------------------------------------------

   CUMULATIVE VOLUMES               L**3   RATES FOR THIS TIME STEP           L**3/T
   ------------------                      ------------------------

                                     IN                                         IN
                                     --                                         --
        PRECIPITATION =         188432.87          PRECIPITATION =                  
           STREAMFLOW =                               STREAMFLOW =                  
     GW BOUNDARY FLOW =                         GW BOUNDARY FLOW =                  


                                    OUT                                        OUT
                                    ---                                        ---
   EVAPOTRANSPIRATION =        1212669.74     EVAPOTRANSPIRATION =          30102.40
           STREAMFLOW =         255229.70             STREAMFLOW =           9822.08
     GW BOUNDARY FLOW =           1018.45       GW BOUNDARY FLOW =             36.36

   INFLOWS - OUTFLOWS =       -1280485.01     INFLOWS - OUTFLOWS =         -39960.84
             --------                                   --------

 TOTAL STORAGE CHANGE =       -1278777.42         STORAGE CHANGE =         -39933.81
       --------------                             --------------
         LAND SURFACE =                             LAND SURFACE =                  
            SOIL ZONE =        -683709.73              SOIL ZONE =         -20219.80
     UNSATURATED ZONE =        -991605.64       UNSATURATED ZONE =         -28783.19
       SATURATED ZONE =         396537.96         SATURATED ZONE =           9069.18

 OVERALL BUDGET ERROR =          -1707.60           BUDGET ERROR =            -27.04


  PERCENT DISCREPANCY =             -0.12    PERCENT DISCREPANCY =             -0.07



1
 SUMMARY VOLUMETRIC BUDGET FOR GSFLOW 
 DATE: 11 04 1990              CUMULATIVE TIME STEP:       4
 MODFLOW STRESS PERIOD      3     CURRENT TIME STEP:      35     ITERATIONS:       6

 -----------------------------------------------------------------------------------

   CUMULATIVE VOLUMES               L**3   RATES FOR THIS TIME STEP           L**3/T
   ------------------                      ------------------------

                                     IN                                         IN
                                     --                                         --
        PRECIPITATION =         703113.06          PRECIPITATION =                  
           STREAMFLOW =                               STREAMFLOW =                  
     GW BOUNDARY FLOW =                         GW BOUNDARY FLOW =                  


                                    OUT                                        OUT
                                    ---                                        ---
   EVAPOTRANSPIRATION =        1309965.99     EVAPOTRANSPIRATION =          26586.43
           STREAMFLOW =         328852.26             STREAMFLOW =          10795.52
     GW BOUNDARY FLOW =           1273.01       GW BOUNDARY FLOW =             36.35

   INFLOWS - OUTFLOWS =        -936978.20     INFLOWS - OUTFLOWS =         -37418.30
             --------                                   --------

 TOTAL STORAGE CHANGE =        -935117.95         STORAGE CHANGE =         -37399.67
       --------------                             --------------
         LAND SURFACE =          14687.55           LAND SURFACE =         -25087.74
            SOIL ZONE =        -265671.64              SOIL ZONE =          -1392.79
     UNSATURATED ZONE =       -1153000.26       UNSATURATED ZONE =         -21493.19
       SATURATED ZONE =         468866.39         SATURATED ZONE =          10574.05

 OVERALL BUDGET ERROR =          -1860.25           BUDGET ERROR =            -18.63


  PERCENT DISCREPANCY =             -0.11    PERCENT DISCREPANCY =             -0.05



1
 SUMMARY VOLUMETRIC BUDGET FOR GSFLOW 
 DATE: 11 11 1990              CUMULATIVE TIME STEP:      11
 MODFLOW STRESS PERIOD      3     CURRENT TIME STEP:      42     ITERATIONS:       6

 -----------------------------------------------------------------------------------

   CUMULATIVE VOLUMES               L**3   RATES FOR THIS TIME STEP           L**3/T
   ------------------                      ------------------------

                                     IN                                         IN
                                     --                                         --
        PRECIPITATION =         703113.06          PRECIPITATION =                  
           STREAMFLOW =                               STREAMFLOW =                  
     GW BOUNDARY FLOW =                         GW BOUNDARY FLOW =                  


                                    OUT                                        OUT
                                    ---                                        ---
   EVAPOTRANSPIRATION =        1447685.00     EVAPOTRANSPIRATION =          27448.99
           STREAMFLOW =         404467.17             STREAMFLOW =          10679.99
     GW BOUNDARY FLOW =           1526.92       GW BOUNDARY FLOW =             36.20

   INFLOWS - OUTFLOWS =       -1150566.02     INFLOWS - OUTFLOWS =         -38165.18
             --------                                   --------

 TOTAL STORAGE CHANGE =       -1148576.28         STORAGE CHANGE =         -38145.70
       --------------                             --------------
         LAND SURFACE =              7.32           LAND SURFACE =            -44.87
            SOIL ZONE =        -384175.28              SOIL ZONE =         -25546.86
     UNSATURATED ZONE =       -1300935.81       UNSATURATED ZONE =         -21091.23
       SATURATED ZONE =         536527.48         SATURATED ZONE =           8537.26

 OVERALL BUDGET ERROR =          -1989.74           BUDGET ERROR =            -19.48


  PERCENT DISCREPANCY =             -0.11    PERCENT DISCREPANCY =             -0.05



1
 SUMMARY VOLUMETRIC BUDGET FOR GSFLOW 
 DATE: 11 18 1990              CUMULATIVE TIME STEP:      18
 MODFLOW STRESS PERIOD      3     CURRENT TIME STEP:      49     ITERATIONS:       6

 -----------------------------------------------------------------------------------

   CUMULATIVE VOLUMES               L**3   RATES FOR THIS TIME STEP           L**3/T
   ------------------                      ------------------------

                                     IN                                         IN
                                     --                                         --
        PRECIPITATION =         747883.35          PRECIPITATION =                  
           STREAMFLOW =                               STREAMFLOW =                  
     GW BOUNDARY FLOW =                         GW BOUNDARY FLOW =                  


                                    OUT                                        OUT
                                    ---                                        ---
   EVAPOTRANSPIRATION =        1564121.27     EVAPOTRANSPIRATION =           5895.06
           STREAMFLOW =         480030.21             STREAMFLOW =          10930.35
     GW BOUNDARY FLOW =           1779.94       GW BOUNDARY FLOW =             36.11

   INFLOWS - OUTFLOWS =       -1298048.07     INFLOWS - OUTFLOWS =         -16861.52
             --------                                   --------

 TOTAL STORAGE CHANGE =       -1295928.25         STORAGE CHANGE =         -16843.64
       --------------                             --------------
         LAND SURFACE =           2991.09           LAND SURFACE =          -2505.72
            SOIL ZONE =        -447535.27              SOIL ZONE =          -2452.53
     UNSATURATED ZONE =       -1445281.38       UNSATURATED ZONE =         -20026.05
       SATURATED ZONE =         593897.30         SATURATED ZONE =           8140.67

 OVERALL BUDGET ERROR =          -2119.82           BUDGET ERROR =            -17.88


  PERCENT DISCREPANCY =             -0.10    PERCENT DISCREPANCY =             -0.11



1
 SUMMARY VOLUMETRIC BUDGET FOR GSFLOW 
 DATE: 11 25 1990              CUMULATIVE TIME STEP:      25
 MODFLOW STRESS PERIOD      3     CURRENT TIME STEP:      56     ITERATIONS:       6

 -----------------------------------------------------------------------------------

   CUMULATIVE VOLUMES               L**3   RATES FOR THIS TIME STEP           L**3/T
   ------------------                      ------------------------

                                     IN                                         IN
                                     --                                         --
        PRECIPITATION =        1009043.38          PRECIPITATION =         186542.88
           STREAMFLOW =                               STREAMFLOW =                  
     GW BOUNDARY FLOW =                         GW BOUNDARY FLOW =                  


                                    OUT                                        OUT
                                    ---                                        ---
   EVAPOTRANSPIRATION =        1628377.30     EVAPOTRANSPIRATION =           6525.24
           STREAMFLOW =         557760.69             STREAMFLOW =          11154.52
     GW BOUNDARY FLOW =           2032.57       GW BOUNDARY FLOW =             36.07

   INFLOWS - OUTFLOWS =       -1179127.17     INFLOWS - OUTFLOWS =         168827.05
             --------                                   --------

 TOTAL STORAGE CHANGE =       -1176894.03         STORAGE CHANGE =         168840.52
       --------------                             --------------
         LAND SURFACE =          34155.95           LAND SURFACE =          17542.40
            SOIL ZONE =        -279611.85              SOIL ZONE =         162730.73
     UNSATURATED ZONE =       -1581171.01       UNSATURATED ZONE =         -19067.63
       SATURATED ZONE =         649732.89         SATURATED ZONE =           7635.02

 OVERALL BUDGET ERROR =          -2233.14           BUDGET ERROR =            -13.47


  PERCENT DISCREPANCY =             -0.10    PERCENT DISCREPANCY =             -0.01



1
 SUMMARY VOLUMETRIC BUDGET FOR GSFLOW 
 DATE: 12 02 1990              CUMULATIVE TIME STEP:       2
 MODFLOW STRESS PERIOD      4     CURRENT TIME STEP:      63     ITERATIONS:       6

 -----------------------------------------------------------------------------------

   CUMULATIVE VOLUMES               L**3   RATES FOR THIS TIME STEP           L**3/T
   ------------------                      ------------------------

                                     IN                                         IN
                                     --                                         --
        PRECIPITATION =        1449284.55          PRECIPITATION =                  
           STREAMFLOW =                               STREAMFLOW =                  
     GW BOUNDARY FLOW =                         GW BOUNDARY FLOW =                  


                                    OUT                                        OUT
                                    ---                                        ---
   EVAPOTRANSPIRATION =        1634915.99     EVAPOTRANSPIRATION =            234.52
           STREAMFLOW =         636579.83             STREAMFLOW =          11411.08
     GW BOUNDARY FLOW =           2284.68       GW BOUNDARY FLOW =             35.98

   INFLOWS - OUTFLOWS =        -824495.94     INFLOWS - OUTFLOWS =         -11681.58
             --------                                   --------

 TOTAL STORAGE CHANGE =        -822170.81         STORAGE CHANGE =         -11668.49
       --------------                             --------------
         LAND SURFACE =         433511.40           LAND SURFACE =           -336.10
            SOIL ZONE =        -244187.56              SOIL ZONE =            250.85
     UNSATURATED ZONE =       -1711308.13       UNSATURATED ZONE =         -18247.32
       SATURATED ZONE =         699813.49         SATURATED ZONE =           6664.08

 OVERALL BUDGET ERROR =          -2325.14           BUDGET ERROR =            -13.09


  PERCENT DISCREPANCY =             -0.10    PERCENT DISCREPANCY =             -0.11



1
 SUMMARY VOLUMETRIC BUDGET FOR GSFLOW 
 DATE: 12 09 1990              CUMULATIVE TIME STEP:       9
 MODFLOW STRESS PERIOD      4     CURRENT TIME STEP:      70     ITERATIONS:       6

 -----------------------------------------------------------------------------------

   CUMULATIVE VOLUMES               L**3   RATES FOR THIS TIME STEP           L**3/T
   ------------------                      ------------------------

                                     IN                                         IN
                                     --                                         --
        PRECIPITATION =        1449284.55          PRECIPITATION =                  
           STREAMFLOW =                               STREAMFLOW =                  
     GW BOUNDARY FLOW =                         GW BOUNDARY FLOW =                  


                                    OUT                                        OUT
                                    ---                                        ---
   EVAPOTRANSPIRATION =        1724790.71     EVAPOTRANSPIRATION =          20300.82
           STREAMFLOW =         717146.43             STREAMFLOW =          11549.10
     GW BOUNDARY FLOW =           2536.18       GW BOUNDARY FLOW =             35.89

   INFLOWS - OUTFLOWS =        -995188.76     INFLOWS - OUTFLOWS =         -31885.81
             --------                                   --------

 TOTAL STORAGE CHANGE =        -992772.23         STORAGE CHANGE =         -31873.72
       --------------                             --------------
         LAND SURFACE =          42683.34           LAND SURFACE =         -36968.66
            SOIL ZONE =          59238.59              SOIL ZONE =          17373.59
     UNSATURATED ZONE =       -1836964.31       UNSATURATED ZONE =         -17891.50
       SATURATED ZONE =         742270.15         SATURATED ZONE =           5612.85

 OVERALL BUDGET ERROR =          -2416.53           BUDGET ERROR =            -12.09


  PERCENT DISCREPANCY =             -0.10    PERCENT DISCREPANCY =             -0.04



1
 SUMMARY VOLUMETRIC BUDGET FOR GSFLOW 
 DATE: 12 16 1990              CUMULATIVE TIME STEP:      16
 MODFLOW STRESS PERIOD      4     CURRENT TIME STEP:      77     ITERATIONS:       5

 -----------------------------------------------------------------------------------

   CUMULATIVE VOLUMES               L**3   RATES FOR THIS TIME STEP           L**3/T
   ------------------                      ------------------------

                                     IN                                         IN
                                     --                                         --
        PRECIPITATION =        1804962.84          PRECIPITATION =                  
           STREAMFLOW =                               STREAMFLOW =                  
     GW BOUNDARY FLOW =                         GW BOUNDARY FLOW =                  


                                    OUT                                        OUT
                                    ---                                        ---
   EVAPOTRANSPIRATION =        1764943.75     EVAPOTRANSPIRATION =                  
           STREAMFLOW =         798523.95             STREAMFLOW =          11671.53
     GW BOUNDARY FLOW =           2787.04       GW BOUNDARY FLOW =             35.80

   INFLOWS - OUTFLOWS =        -761291.90     INFLOWS - OUTFLOWS =         -11707.33
             --------                                   --------

 TOTAL STORAGE CHANGE =        -758834.53         STORAGE CHANGE =         -11701.38
       --------------                             --------------
         LAND SURFACE =         158559.69           LAND SURFACE =                  
            SOIL ZONE =         260897.46              SOIL ZONE =            170.25
     UNSATURATED ZONE =       -1957342.53       UNSATURATED ZONE =         -16807.20
       SATURATED ZONE =         779050.84         SATURATED ZONE =           4935.56

 OVERALL BUDGET ERROR =          -2457.37           BUDGET ERROR =             -5.95


  PERCENT DISCREPANCY =             -0.10    PERCENT DISCREPANCY =             -0.05



1
 SUMMARY VOLUMETRIC BUDGET FOR GSFLOW 
 DATE: 12 23 1990              CUMULATIVE TIME STEP:      23
 MODFLOW STRESS PERIOD      4     CURRENT TIME STEP:      84     ITERATIONS:       5

 -----------------------------------------------------------------------------------

   CUMULATIVE VOLUMES               L**3   RATES FOR THIS TIME STEP           L**3/T
   ------------------                      ------------------------

                                     IN                                         IN
                                     --                                         --
        PRECIPITATION =        2276236.55          PRECIPITATION =                  
           STREAMFLOW =                               STREAMFLOW =                  
     GW BOUNDARY FLOW =                         GW BOUNDARY FLOW =                  


                                    OUT                                        OUT
                                    ---                                        ---
   EVAPOTRANSPIRATION =        1766002.62     EVAPOTRANSPIRATION =                  
           STREAMFLOW =         880656.84             STREAMFLOW =          11773.69
     GW BOUNDARY FLOW =           3037.30       GW BOUNDARY FLOW =             35.72

   INFLOWS - OUTFLOWS =        -373460.22     INFLOWS - OUTFLOWS =         -11809.41
             --------                                   --------

 TOTAL STORAGE CHANGE =        -370954.21         STORAGE CHANGE =         -11801.83
       --------------                             --------------
         LAND SURFACE =         628777.68           LAND SURFACE =                  
            SOIL ZONE =         262143.45              SOIL ZONE =            182.71
     UNSATURATED ZONE =       -2072500.63       UNSATURATED ZONE =         -16187.49
       SATURATED ZONE =         810625.28         SATURATED ZONE =           4202.95

 OVERALL BUDGET ERROR =          -2506.01           BUDGET ERROR =             -7.58


  PERCENT DISCREPANCY =             -0.09    PERCENT DISCREPANCY =             -0.06



1
 SUMMARY VOLUMETRIC BUDGET FOR GSFLOW 
 DATE: 12 30 1990              CUMULATIVE TIME STEP:      30
 MODFLOW STRESS PERIOD      4     CURRENT TIME STEP:      91     ITERATIONS:       5

 -----------------------------------------------------------------------------------

   CUMULATIVE VOLUMES               L**3   RATES FOR THIS TIME STEP           L**3/T
   ------------------                      ------------------------

                                     IN                                         IN
                                     --                                         --
        PRECIPITATION =        2276236.55          PRECIPITATION =                  
           STREAMFLOW =                               STREAMFLOW =                  
     GW BOUNDARY FLOW =              0.03       GW BOUNDARY FLOW =              0.02


                                    OUT                                        OUT
                                    ---                                        ---
   EVAPOTRANSPIRATION =        1766570.20     EVAPOTRANSPIRATION =                  
           STREAMFLOW =         963364.41             STREAMFLOW =          11841.92
     GW BOUNDARY FLOW =           3287.83       GW BOUNDARY FLOW =             35.78

   INFLOWS - OUTFLOWS =        -456985.87     INFLOWS - OUTFLOWS =         -11877.68
             --------                                   --------

 TOTAL STORAGE CHANGE =        -454422.17         STORAGE CHANGE =         -11868.87
       --------------                             --------------
         LAND SURFACE =         628210.29           LAND SURFACE =                  
            SOIL ZONE =         263451.07              SOIL ZONE =            190.47
     UNSATURATED ZONE =       -2183116.65       UNSATURATED ZONE =         -15533.75
       SATURATED ZONE =         837033.13         SATURATED ZONE =           3474.41

 OVERALL BUDGET ERROR =          -2563.70           BUDGET ERROR =             -8.81


  PERCENT DISCREPANCY =             -0.09    PERCENT DISCREPANCY =             -0.07



1
 SUMMARY VOLUMETRIC BUDGET FOR GSFLOW 
 DATE: 01 06 1991              CUMULATIVE TIME STEP:       6
 MODFLOW STRESS PERIOD      5     CURRENT TIME STEP:      98     ITERATIONS:      10

 -----------------------------------------------------------------------------------

   CUMULATIVE VOLUMES               L**3   RATES FOR THIS TIME STEP           L**3/T
   ------------------                      ------------------------

                                     IN                                         IN
                                     --                                         --
        PRECIPITATION =        2276236.55          PRECIPITATION =                  
           STREAMFLOW =                               STREAMFLOW =                  
     GW BOUNDARY FLOW =              0.57       GW BOUNDARY FLOW =              0.12


                                    OUT                                        OUT
                                    ---                                        ---
   EVAPOTRANSPIRATION =        1794585.89     EVAPOTRANSPIRATION =           3334.07
           STREAMFLOW =        1045823.61             STREAMFLOW =          11203.71
     GW BOUNDARY FLOW =           3538.32       GW BOUNDARY FLOW =             35.77

   INFLOWS - OUTFLOWS =        -567710.71     INFLOWS - OUTFLOWS =         -14573.43
             --------                                   --------

 TOTAL STORAGE CHANGE =        -565083.06         STORAGE CHANGE =         -14565.48
       --------------                             --------------
         LAND SURFACE =         485287.83           LAND SURFACE =          -8494.60
            SOIL ZONE =         379853.22              SOIL ZONE =           5371.33
     UNSATURATED ZONE =       -2289650.42       UNSATURATED ZONE =         -14979.15
       SATURATED ZONE =         859426.31         SATURATED ZONE =           3536.95

 OVERALL BUDGET ERROR =          -2627.65           BUDGET ERROR =             -7.95


  PERCENT DISCREPANCY =             -0.09    PERCENT DISCREPANCY =             -0.05



1
 SUMMARY VOLUMETRIC BUDGET FOR GSFLOW 
 DATE: 01 13 1991              CUMULATIVE TIME STEP:      13
 MODFLOW STRESS PERIOD      5     CURRENT TIME STEP:     105     ITERATIONS:       6

 -----------------------------------------------------------------------------------

   CUMULATIVE VOLUMES               L**3   RATES FOR THIS TIME STEP           L**3/T
   ------------------                      ------------------------

                                     IN                                         IN
                                     --                                         --
        PRECIPITATION =        2596386.94          PRECIPITATION =          10327.43
           STREAMFLOW =                               STREAMFLOW =                  
     GW BOUNDARY FLOW =              1.77       GW BOUNDARY FLOW =              0.21


                                    OUT                                        OUT
                                    ---                                        ---
   EVAPOTRANSPIRATION =        1864445.92     EVAPOTRANSPIRATION =          19906.23
           STREAMFLOW =        1128274.98             STREAMFLOW =          11715.82
     GW BOUNDARY FLOW =           3788.76       GW BOUNDARY FLOW =             35.76

   INFLOWS - OUTFLOWS =        -400120.95     INFLOWS - OUTFLOWS =         -21330.17
             --------                                   --------

 TOTAL STORAGE CHANGE =        -397429.51         STORAGE CHANGE =         -21320.75
       --------------                             --------------
         LAND SURFACE =         415957.94           LAND SURFACE =        -130998.07
            SOIL ZONE =         705049.33              SOIL ZONE =         124357.01
     UNSATURATED ZONE =       -2394681.76       UNSATURATED ZONE =         -16141.00
       SATURATED ZONE =         876244.98         SATURATED ZONE =           1461.30

 OVERALL BUDGET ERROR =          -2691.45           BUDGET ERROR =             -9.41


  PERCENT DISCREPANCY =             -0.09    PERCENT DISCREPANCY =             -0.03



1
 SUMMARY VOLUMETRIC BUDGET FOR GSFLOW 
 DATE: 01 20 1991              CUMULATIVE TIME STEP:      20
 MODFLOW STRESS PERIOD      5     CURRENT TIME STEP:     112     ITERATIONS:       7

 -----------------------------------------------------------------------------------

   CUMULATIVE VOLUMES               L**3   RATES FOR THIS TIME STEP           L**3/T
   ------------------                      ------------------------

                                     IN                                         IN
                                     --                                         --
        PRECIPITATION =        2596386.94          PRECIPITATION =                  
           STREAMFLOW =                               STREAMFLOW =                  
     GW BOUNDARY FLOW =              3.58       GW BOUNDARY FLOW =              0.30


                                    OUT                                        OUT
                                    ---                                        ---
   EVAPOTRANSPIRATION =        1943350.43     EVAPOTRANSPIRATION =           2635.44
           STREAMFLOW =        1210541.74             STREAMFLOW =          11823.49
     GW BOUNDARY FLOW =           4039.20       GW BOUNDARY FLOW =             35.78

   INFLOWS - OUTFLOWS =        -561540.85     INFLOWS - OUTFLOWS =         -14494.41
             --------                                   --------

 TOTAL STORAGE CHANGE =        -558783.13         STORAGE CHANGE =         -14486.51
       --------------                             --------------
         LAND SURFACE =         248942.00           LAND SURFACE =           -383.91
            SOIL ZONE =         799483.35              SOIL ZONE =          -1845.06
     UNSATURATED ZONE =       -2496419.13       UNSATURATED ZONE =         -13949.14
       SATURATED ZONE =         889210.65         SATURATED ZONE =           1691.60

 OVERALL BUDGET ERROR =          -2757.72           BUDGET ERROR =             -7.90


  PERCENT DISCREPANCY =             -0.09    PERCENT DISCREPANCY =             -0.05



1
 SUMMARY VOLUMETRIC BUDGET FOR GSFLOW 
 DATE: 01 27 1991              CUMULATIVE TIME STEP:      27
 MODFLOW STRESS PERIOD      5     CURRENT TIME STEP:     119     ITERATIONS:       5

 -----------------------------------------------------------------------------------

   CUMULATIVE VOLUMES               L**3   RATES FOR THIS TIME STEP           L**3/T
   ------------------                      ------------------------

                                     IN                                         IN
                                     --                                         --
        PRECIPITATION =        2596386.94          PRECIPITATION =                  
           STREAMFLOW =                               STREAMFLOW =                  
     GW BOUNDARY FLOW =              5.99       GW BOUNDARY FLOW =              0.38


                                    OUT                                        OUT
                                    ---                                        ---
   EVAPOTRANSPIRATION =        1970796.09     EVAPOTRANSPIRATION =           1868.05
           STREAMFLOW =        1294166.62             STREAMFLOW =          11994.65
     GW BOUNDARY FLOW =           4289.64       GW BOUNDARY FLOW =             35.78

   INFLOWS - OUTFLOWS =        -672859.41     INFLOWS - OUTFLOWS =         -13898.09
             --------                                   --------

 TOTAL STORAGE CHANGE =        -670015.00         STORAGE CHANGE =         -13884.68
       --------------                             --------------
         LAND SURFACE =         216195.30           LAND SURFACE =           -283.34
            SOIL ZONE =         808665.51              SOIL ZONE =          -1286.91
     UNSATURATED ZONE =       -2592579.35       UNSATURATED ZONE =         -13312.40
       SATURATED ZONE =         897703.54         SATURATED ZONE =            997.98

 OVERALL BUDGET ERROR =          -2844.41           BUDGET ERROR =            -13.41


  PERCENT DISCREPANCY =             -0.09    PERCENT DISCREPANCY =             -0.10



1
 SUMMARY VOLUMETRIC BUDGET FOR GSFLOW 
 DATE: 02 03 1991              CUMULATIVE TIME STEP:       3
 MODFLOW STRESS PERIOD      6     CURRENT TIME STEP:     126     ITERATIONS:       5

 -----------------------------------------------------------------------------------

   CUMULATIVE VOLUMES               L**3   RATES FOR THIS TIME STEP           L**3/T
   ------------------                      ------------------------

                                     IN                                         IN
                                     --                                         --
        PRECIPITATION =        3228422.31          PRECIPITATION =          30459.53
           STREAMFLOW =                               STREAMFLOW =                  
     GW BOUNDARY FLOW =              8.98       GW BOUNDARY FLOW =              0.46


                                    OUT                                        OUT
                                    ---                                        ---
   EVAPOTRANSPIRATION =        2082435.03     EVAPOTRANSPIRATION =          22096.84
           STREAMFLOW =        1378229.29             STREAMFLOW =          12058.03
     GW BOUNDARY FLOW =           4540.03       GW BOUNDARY FLOW =             35.77

   INFLOWS - OUTFLOWS =        -236773.05     INFLOWS - OUTFLOWS =          -3730.64
             --------                                   --------

 TOTAL STORAGE CHANGE =        -233843.41         STORAGE CHANGE =          -3717.00
       --------------                             --------------
         LAND SURFACE =          98449.12           LAND SURFACE =         -20224.98
            SOIL ZONE =        1453014.05              SOIL ZONE =          28609.60
     UNSATURATED ZONE =       -2686812.49       UNSATURATED ZONE =         -12492.36
       SATURATED ZONE =         901505.92         SATURATED ZONE =            390.73

 OVERALL BUDGET ERROR =          -2929.64           BUDGET ERROR =            -13.64


  PERCENT DISCREPANCY =             -0.08    PERCENT DISCREPANCY =             -0.04



1
 SUMMARY VOLUMETRIC BUDGET FOR GSFLOW 
 DATE: 02 10 1991              CUMULATIVE TIME STEP:      10
 MODFLOW STRESS PERIOD      6     CURRENT TIME STEP:     133     ITERATIONS:       5

 -----------------------------------------------------------------------------------

   CUMULATIVE VOLUMES               L**3   RATES FOR THIS TIME STEP           L**3/T
   ------------------                      ------------------------

                                     IN                                         IN
                                     --                                         --
        PRECIPITATION =        3510173.01          PRECIPITATION =                  
           STREAMFLOW =                               STREAMFLOW =                  
     GW BOUNDARY FLOW =             12.52       GW BOUNDARY FLOW =              0.54


                                    OUT                                        OUT
                                    ---                                        ---
   EVAPOTRANSPIRATION =        2252765.24     EVAPOTRANSPIRATION =          26092.01
           STREAMFLOW =        1463115.34             STREAMFLOW =          12149.36
     GW BOUNDARY FLOW =           4790.21       GW BOUNDARY FLOW =             35.70

   INFLOWS - OUTFLOWS =        -210485.26     INFLOWS - OUTFLOWS =         -38276.54
             --------                                   --------

 TOTAL STORAGE CHANGE =        -207454.04         STORAGE CHANGE =         -38261.52
       --------------                             --------------
         LAND SURFACE =          24867.61           LAND SURFACE =          -3553.94
            SOIL ZONE =        1628998.70              SOIL ZONE =         -23751.59
     UNSATURATED ZONE =       -2764004.37       UNSATURATED ZONE =         -10867.65
       SATURATED ZONE =         902684.02         SATURATED ZONE =            -88.33

 OVERALL BUDGET ERROR =          -3031.22           BUDGET ERROR =            -15.02


  PERCENT DISCREPANCY =             -0.08    PERCENT DISCREPANCY =             -0.04



1
 SUMMARY VOLUMETRIC BUDGET FOR GSFLOW 
 DATE: 02 17 1991              CUMULATIVE TIME STEP:      17
 MODFLOW STRESS PERIOD      6     CURRENT TIME STEP:     140     ITERATIONS:       5

 -----------------------------------------------------------------------------------

   CUMULATIVE VOLUMES               L**3   RATES FOR THIS TIME STEP           L**3/T
   ------------------                      ------------------------

                                     IN                                         IN
                                     --                                         --
        PRECIPITATION =        3510173.01          PRECIPITATION =                  
           STREAMFLOW =                               STREAMFLOW =                  
     GW BOUNDARY FLOW =             16.56       GW BOUNDARY FLOW =              0.61


                                    OUT                                        OUT
                                    ---                                        ---
   EVAPOTRANSPIRATION =        2499272.42     EVAPOTRANSPIRATION =          24017.52
           STREAMFLOW =        1548274.72             STREAMFLOW =          12175.11
     GW BOUNDARY FLOW =           5039.78       GW BOUNDARY FLOW =             35.61

   INFLOWS - OUTFLOWS =        -542397.35     INFLOWS - OUTFLOWS =         -36227.64
             --------                                   --------

 TOTAL STORAGE CHANGE =        -539254.40         STORAGE CHANGE =         -36211.18
       --------------                             --------------
         LAND SURFACE =           3490.55           LAND SURFACE =           -313.84
            SOIL ZONE =        1396951.43              SOIL ZONE =         -24541.19
     UNSATURATED ZONE =       -2839820.53       UNSATURATED ZONE =         -10814.26
       SATURATED ZONE =         900124.15         SATURATED ZONE =           -541.89

 OVERALL BUDGET ERROR =          -3142.95           BUDGET ERROR =            -16.47


  PERCENT DISCREPANCY =             -0.08    PERCENT DISCREPANCY =             -0.05



1
 SUMMARY VOLUMETRIC BUDGET FOR GSFLOW 
 DATE: 02 24 1991              CUMULATIVE TIME STEP:      24
 MODFLOW STRESS PERIOD      6     CURRENT TIME STEP:     147     ITERATIONS:       5

 -----------------------------------------------------------------------------------

   CUMULATIVE VOLUMES               L**3   RATES FOR THIS TIME STEP           L**3/T
   ------------------                      ------------------------

                                     IN                                         IN
                                     --                                         --
        PRECIPITATION =        3510173.01          PRECIPITATION =                  
           STREAMFLOW =                               STREAMFLOW =                  
     GW BOUNDARY FLOW =             21.09       GW BOUNDARY FLOW =              0.68


                                    OUT                                        OUT
                                    ---                                        ---
   EVAPOTRANSPIRATION =        2692160.45     EVAPOTRANSPIRATION =          18055.20
           STREAMFLOW =        1632591.06             STREAMFLOW =          11927.04
     GW BOUNDARY FLOW =           5288.68       GW BOUNDARY FLOW =             35.50

   INFLOWS - OUTFLOWS =        -819846.09     INFLOWS - OUTFLOWS =         -30017.07
             --------                                   --------

 TOTAL STORAGE CHANGE =        -816589.74         STORAGE CHANGE =         -29999.20
       --------------                             --------------
         LAND SURFACE =           1433.48           LAND SURFACE =            -37.49
            SOIL ZONE =        1208062.72              SOIL ZONE =         -17178.05
     UNSATURATED ZONE =       -2915384.95       UNSATURATED ZONE =         -10798.97
       SATURATED ZONE =         889299.01         SATURATED ZONE =          -1984.70

 OVERALL BUDGET ERROR =          -3256.34           BUDGET ERROR =            -17.87


  PERCENT DISCREPANCY =             -0.08    PERCENT DISCREPANCY =             -0.06



1
 SUMMARY VOLUMETRIC BUDGET FOR GSFLOW 
 DATE: 03 03 1991              CUMULATIVE TIME STEP:       3
 MODFLOW STRESS PERIOD      7     CURRENT TIME STEP:     154     ITERATIONS:       6

 -----------------------------------------------------------------------------------

   CUMULATIVE VOLUMES               L**3   RATES FOR THIS TIME STEP           L**3/T
   ------------------                      ------------------------

                                     IN                                         IN
                                     --                                         --
        PRECIPITATION =        6220189.63          PRECIPITATION =        1243187.24
           STREAMFLOW =                               STREAMFLOW =                  
     GW BOUNDARY FLOW =             26.08       GW BOUNDARY FLOW =              0.74


                                    OUT                                        OUT
                                    ---                                        ---
   EVAPOTRANSPIRATION =        2822732.70     EVAPOTRANSPIRATION =           9086.76
           STREAMFLOW =        1715804.89             STREAMFLOW =          12221.15
     GW BOUNDARY FLOW =           5536.81       GW BOUNDARY FLOW =             35.44

   INFLOWS - OUTFLOWS =        1676141.30     INFLOWS - OUTFLOWS =        1221844.64
             --------                                   --------

 TOTAL STORAGE CHANGE =        1679519.06         STORAGE CHANGE =        1221854.84
       --------------                             --------------
         LAND SURFACE =        1646768.25           LAND SURFACE =         190636.27
            SOIL ZONE =        2149002.54              SOIL ZONE =        1040850.93
     UNSATURATED ZONE =       -2988844.60       UNSATURATED ZONE =          -7775.58
       SATURATED ZONE =         872592.87         SATURATED ZONE =          -1856.78

 OVERALL BUDGET ERROR =          -3377.76           BUDGET ERROR =            -10.21


  PERCENT DISCREPANCY =             -0.05    PERCENT DISCREPANCY =             -0.00



1
 SUMMARY VOLUMETRIC BUDGET FOR GSFLOW 
 DATE: 03 10 1991              CUMULATIVE TIME STEP:      10
 MODFLOW STRESS PERIOD      7     CURRENT TIME STEP:     161     ITERATIONS:       5

 -----------------------------------------------------------------------------------

   CUMULATIVE VOLUMES               L**3   RATES FOR THIS TIME STEP           L**3/T
   ------------------                      ------------------------

                                     IN                                         IN
                                     --                                         --
        PRECIPITATION =        8746030.42          PRECIPITATION =          32888.55
           STREAMFLOW =                               STREAMFLOW =                  
     GW BOUNDARY FLOW =             31.46       GW BOUNDARY FLOW =              0.80


                                    OUT                                        OUT
                                    ---                                        ---
   EVAPOTRANSPIRATION =        2889034.33     EVAPOTRANSPIRATION =           7879.35
           STREAMFLOW =        2816876.22             STREAMFLOW =          13884.50
     GW BOUNDARY FLOW =           5791.44       GW BOUNDARY FLOW =             35.42

   INFLOWS - OUTFLOWS =        3034359.88     INFLOWS - OUTFLOWS =          11090.07
             --------                                   --------

 TOTAL STORAGE CHANGE =        3037824.62         STORAGE CHANGE =          11108.88
       --------------                             --------------
         LAND SURFACE =        1442690.50           LAND SURFACE =         -18642.56
            SOIL ZONE =        3698165.46              SOIL ZONE =          27736.53
     UNSATURATED ZONE =       -2967608.77       UNSATURATED ZONE =           3425.60
       SATURATED ZONE =         864577.44         SATURATED ZONE =          -1410.70

 OVERALL BUDGET ERROR =          -3464.74           BUDGET ERROR =            -18.80


  PERCENT DISCREPANCY =             -0.04    PERCENT DISCREPANCY =             -0.06



1
 SUMMARY VOLUMETRIC BUDGET FOR GSFLOW 
 DATE: 03 17 1991              CUMULATIVE TIME STEP:      17
 MODFLOW STRESS PERIOD      7     CURRENT TIME STEP:     168     ITERATIONS:       5

 -----------------------------------------------------------------------------------

   CUMULATIVE VOLUMES               L**3   RATES FOR THIS TIME STEP           L**3/T
   ------------------                      ------------------------

                                     IN                                         IN
                                     --                                         --
        PRECIPITATION =        9897129.71          PRECIPITATION =         157865.04
           STREAMFLOW =                               STREAMFLOW =                  
     GW BOUNDARY FLOW =             37.29       GW BOUNDARY FLOW =              0.86


                                    OUT                                        OUT
                                    ---                                        ---
   EVAPOTRANSPIRATION =        2914474.42     EVAPOTRANSPIRATION =           7479.76
           STREAMFLOW =        2934457.78             STREAMFLOW =          18971.91
     GW BOUNDARY FLOW =           6039.44       GW BOUNDARY FLOW =             35.41

   INFLOWS - OUTFLOWS =        4042195.36     INFLOWS - OUTFLOWS =         131378.82
             --------                                   --------

 TOTAL STORAGE CHANGE =        4045758.78         STORAGE CHANGE =         131396.02
       --------------                             --------------
         LAND SURFACE =        2510890.91           LAND SURFACE =          95731.22
            SOIL ZONE =        3626055.92              SOIL ZONE =          35001.63
     UNSATURATED ZONE =       -2947792.72       UNSATURATED ZONE =           1931.28
       SATURATED ZONE =         856604.67         SATURATED ZONE =          -1268.12

 OVERALL BUDGET ERROR =          -3563.42           BUDGET ERROR =            -17.20


  PERCENT DISCREPANCY =             -0.04    PERCENT DISCREPANCY =             -0.01



1
 SUMMARY VOLUMETRIC BUDGET FOR GSFLOW 
 DATE: 03 24 1991              CUMULATIVE TIME STEP:      24
 MODFLOW STRESS PERIOD      7     CURRENT TIME STEP:     175     ITERATIONS:       7

 -----------------------------------------------------------------------------------

   CUMULATIVE VOLUMES               L**3   RATES FOR THIS TIME STEP           L**3/T
   ------------------                      ------------------------

                                     IN                                         IN
                                     --                                         --
        PRECIPITATION =        1.1673D+07          PRECIPITATION =        1230031.83
           STREAMFLOW =                               STREAMFLOW =                  
     GW BOUNDARY FLOW =             43.54       GW BOUNDARY FLOW =              0.92


                                    OUT                                        OUT
                                    ---                                        ---
   EVAPOTRANSPIRATION =        2951526.88     EVAPOTRANSPIRATION =           4572.25
           STREAMFLOW =        3089087.64             STREAMFLOW =          24740.54
     GW BOUNDARY FLOW =           6287.23       GW BOUNDARY FLOW =             35.39

   INFLOWS - OUTFLOWS =        5626253.29     INFLOWS - OUTFLOWS =        1200684.57
             --------                                   --------

 TOTAL STORAGE CHANGE =        5629899.18         STORAGE CHANGE =        1200689.91
       --------------                             --------------
         LAND SURFACE =        4226592.84           LAND SURFACE =        1227877.69
            SOIL ZONE =        3492342.41              SOIL ZONE =         -27002.04
     UNSATURATED ZONE =       -2937842.24       UNSATURATED ZONE =            756.54
       SATURATED ZONE =         848806.17         SATURATED ZONE =           -942.28

 OVERALL BUDGET ERROR =          -3645.89           BUDGET ERROR =             -5.34


  PERCENT DISCREPANCY =             -0.03    PERCENT DISCREPANCY =             -0.00



1
 SUMMARY VOLUMETRIC BUDGET FOR GSFLOW 
 DATE: 03 31 1991              CUMULATIVE TIME STEP:      31
 MODFLOW STRESS PERIOD      7     CURRENT TIME STEP:     182     ITERATIONS:       7

 -----------------------------------------------------------------------------------

   CUMULATIVE VOLUMES               L**3   RATES FOR THIS TIME STEP           L**3/T
   ------------------                      ------------------------

                                     IN                                         IN
                                     --                                         --
        PRECIPITATION =        1.2495D+07          PRECIPITATION =                  
           STREAMFLOW =                               STREAMFLOW =                  
     GW BOUNDARY FLOW =             50.19       GW BOUNDARY FLOW =              0.97


                                    OUT                                        OUT
                                    ---                                        ---
   EVAPOTRANSPIRATION =        3072832.10     EVAPOTRANSPIRATION =          47925.31
           STREAMFLOW =        3291913.35             STREAMFLOW =          40355.85
     GW BOUNDARY FLOW =           6534.98       GW BOUNDARY FLOW =             35.52

   INFLOWS - OUTFLOWS =        6124095.05     INFLOWS - OUTFLOWS =         -88315.71
             --------                                   --------

 TOTAL STORAGE CHANGE =        6127775.99         STORAGE CHANGE =         -88310.60
       --------------                             --------------
         LAND SURFACE =        4675358.54           LAND SURFACE =        -201940.46
            SOIL ZONE =        3542773.00              SOIL ZONE =         112576.06
     UNSATURATED ZONE =       -2933906.07       UNSATURATED ZONE =           1727.81
       SATURATED ZONE =         843550.52         SATURATED ZONE =           -674.01

 OVERALL BUDGET ERROR =          -3680.94           BUDGET ERROR =             -5.11


  PERCENT DISCREPANCY =             -0.03    PERCENT DISCREPANCY =             -0.01



1
 SUMMARY VOLUMETRIC BUDGET FOR GSFLOW 
 DATE: 04 07 1991              CUMULATIVE TIME STEP:       7
 MODFLOW STRESS PERIOD      8     CURRENT TIME STEP:     189     ITERATIONS:       7

 -----------------------------------------------------------------------------------

   CUMULATIVE VOLUMES               L**3   RATES FOR THIS TIME STEP           L**3/T
   ------------------                      ------------------------

                                     IN                                         IN
                                     --                                         --
        PRECIPITATION =        1.3018D+07          PRECIPITATION =                  
           STREAMFLOW =                               STREAMFLOW =                  
     GW BOUNDARY FLOW =             57.18       GW BOUNDARY FLOW =              1.02


                                    OUT                                        OUT
                                    ---                                        ---
   EVAPOTRANSPIRATION =        3380715.37     EVAPOTRANSPIRATION =          15898.60
           STREAMFLOW =        3802780.96             STREAMFLOW =          72629.08
     GW BOUNDARY FLOW =           6785.77       GW BOUNDARY FLOW =             35.82

   INFLOWS - OUTFLOWS =        5827511.83     INFLOWS - OUTFLOWS =         -88562.48
             --------                                   --------

 TOTAL STORAGE CHANGE =        5831222.98         STORAGE CHANGE =         -88557.76
       --------------                             --------------
         LAND SURFACE =        3065997.50           LAND SURFACE =         -68678.38
            SOIL ZONE =        4809322.65              SOIL ZONE =         -31909.69
     UNSATURATED ZONE =       -2886271.55       UNSATURATED ZONE =          11871.67
       SATURATED ZONE =         842174.38         SATURATED ZONE =            158.63

 OVERALL BUDGET ERROR =          -3711.16           BUDGET ERROR =             -4.72


  PERCENT DISCREPANCY =             -0.03    PERCENT DISCREPANCY =             -0.01



1
 SUMMARY VOLUMETRIC BUDGET FOR GSFLOW 
 DATE: 04 14 1991              CUMULATIVE TIME STEP:      14
 MODFLOW STRESS PERIOD      8     CURRENT TIME STEP:     196     ITERATIONS:       6

 -----------------------------------------------------------------------------------

   CUMULATIVE VOLUMES               L**3   RATES FOR THIS TIME STEP           L**3/T
   ------------------                      ------------------------

                                     IN                                         IN
                                     --                                         --
        PRECIPITATION =        1.3018D+07          PRECIPITATION =                  
           STREAMFLOW =                               STREAMFLOW =                  
     GW BOUNDARY FLOW =             64.49       GW BOUNDARY FLOW =              1.06


                                    OUT                                        OUT
                                    ---                                        ---
   EVAPOTRANSPIRATION =        3564638.20     EVAPOTRANSPIRATION =          42060.22
           STREAMFLOW =        4371553.12             STREAMFLOW =          87214.98
     GW BOUNDARY FLOW =           7036.47       GW BOUNDARY FLOW =             35.82

   INFLOWS - OUTFLOWS =        5074573.44     INFLOWS - OUTFLOWS =        -129309.96
             --------                                   --------

 TOTAL STORAGE CHANGE =        5078313.92         STORAGE CHANGE =        -129306.69
       --------------                             --------------
         LAND SURFACE =        2445283.45           LAND SURFACE =        -172566.98
            SOIL ZONE =        4600506.21              SOIL ZONE =          33204.08
     UNSATURATED ZONE =       -2813055.22       UNSATURATED ZONE =           9401.30
       SATURATED ZONE =         845579.48         SATURATED ZONE =            654.91

 OVERALL BUDGET ERROR =          -3740.48           BUDGET ERROR =             -3.26


  PERCENT DISCREPANCY =             -0.03    PERCENT DISCREPANCY =             -0.00



1
 SUMMARY VOLUMETRIC BUDGET FOR GSFLOW 
 DATE: 04 21 1991              CUMULATIVE TIME STEP:      21
 MODFLOW STRESS PERIOD      8     CURRENT TIME STEP:     203     ITERATIONS:       6

 -----------------------------------------------------------------------------------

   CUMULATIVE VOLUMES               L**3   RATES FOR THIS TIME STEP           L**3/T
   ------------------                      ------------------------

                                     IN                                         IN
                                     --                                         --
        PRECIPITATION =        1.3034D+07          PRECIPITATION =                  
           STREAMFLOW =                               STREAMFLOW =                  
     GW BOUNDARY FLOW =             72.10       GW BOUNDARY FLOW =              1.11


                                    OUT                                        OUT
                                    ---                                        ---
   EVAPOTRANSPIRATION =        3818259.20     EVAPOTRANSPIRATION =          46843.68
           STREAMFLOW =        4951053.00             STREAMFLOW =          85873.75
     GW BOUNDARY FLOW =           7286.30       GW BOUNDARY FLOW =             35.67

   INFLOWS - OUTFLOWS =        4257535.70     INFLOWS - OUTFLOWS =        -132751.99
             --------                                   --------

 TOTAL STORAGE CHANGE =        4261289.69         STORAGE CHANGE =        -132750.78
       --------------                             --------------
         LAND SURFACE =        1509805.79           LAND SURFACE =        -166962.13
            SOIL ZONE =        4652452.33              SOIL ZONE =          24227.68
     UNSATURATED ZONE =       -2751061.40       UNSATURATED ZONE =           9162.89
       SATURATED ZONE =         850092.97         SATURATED ZONE =            820.79

 OVERALL BUDGET ERROR =          -3753.99           BUDGET ERROR =             -1.20


  PERCENT DISCREPANCY =             -0.03    PERCENT DISCREPANCY =             -0.00



1
 SUMMARY VOLUMETRIC BUDGET FOR GSFLOW 
 DATE: 04 28 1991              CUMULATIVE TIME STEP:      28
 MODFLOW STRESS PERIOD      8     CURRENT TIME STEP:     210     ITERATIONS:       7

 -----------------------------------------------------------------------------------

   CUMULATIVE VOLUMES               L**3   RATES FOR THIS TIME STEP           L**3/T
   ------------------                      ------------------------

                                     IN                                         IN
                                     --                                         --
        PRECIPITATION =        1.3303D+07          PRECIPITATION =                  
           STREAMFLOW =                               STREAMFLOW =                  
     GW BOUNDARY FLOW =             80.00       GW BOUNDARY FLOW =              1.15


                                    OUT                                        OUT
                                    ---                                        ---
   EVAPOTRANSPIRATION =        4086361.16     EVAPOTRANSPIRATION =          58070.50
           STREAMFLOW =        5539615.37             STREAMFLOW =          82054.39
     GW BOUNDARY FLOW =           7535.24       GW BOUNDARY FLOW =             35.48

   INFLOWS - OUTFLOWS =        3669998.74     INFLOWS - OUTFLOWS =        -140159.22
             --------                                   --------

 TOTAL STORAGE CHANGE =        3673761.78         STORAGE CHANGE =        -140157.93
       --------------                             --------------
         LAND SURFACE =         898891.25           LAND SURFACE =        -105844.44
            SOIL ZONE =        4608109.39              SOIL ZONE =         -43637.14
     UNSATURATED ZONE =       -2690157.23       UNSATURATED ZONE =           8253.31
       SATURATED ZONE =         856918.37         SATURATED ZONE =           1070.35

 OVERALL BUDGET ERROR =          -3763.04           BUDGET ERROR =             -1.29


  PERCENT DISCREPANCY =             -0.03    PERCENT DISCREPANCY =             -0.00



1
 SUMMARY VOLUMETRIC BUDGET FOR GSFLOW 
 DATE: 05 05 1991              CUMULATIVE TIME STEP:       5
 MODFLOW STRESS PERIOD      9     CURRENT TIME STEP:     217     ITERATIONS:       7

 -----------------------------------------------------------------------------------

   CUMULATIVE VOLUMES               L**3   RATES FOR THIS TIME STEP           L**3/T
   ------------------                      ------------------------

                                     IN                                         IN
                                     --                                         --
        PRECIPITATION =        1.3510D+07          PRECIPITATION =                  
           STREAMFLOW =                               STREAMFLOW =                  
     GW BOUNDARY FLOW =             88.21       GW BOUNDARY FLOW =              1.19


                                    OUT                                        OUT
                                    ---                                        ---
   EVAPOTRANSPIRATION =        4463118.92     EVAPOTRANSPIRATION =          90182.26
           STREAMFLOW =        6027377.69             STREAMFLOW =          61993.25
     GW BOUNDARY FLOW =           7782.01       GW BOUNDARY FLOW =             35.10

   INFLOWS - OUTFLOWS =        3011517.73     INFLOWS - OUTFLOWS =        -152209.42
             --------                                   --------

 TOTAL STORAGE CHANGE =        3015288.39         STORAGE CHANGE =        -152208.72
       --------------                             --------------
         LAND SURFACE =         432766.25           LAND SURFACE =         -94991.40
            SOIL ZONE =        4360991.96              SOIL ZONE =         -64197.84
     UNSATURATED ZONE =       -2643672.41       UNSATURATED ZONE =           5645.10
       SATURATED ZONE =         865202.58         SATURATED ZONE =           1335.42

 OVERALL BUDGET ERROR =          -3770.66           BUDGET ERROR =             -0.70


  PERCENT DISCREPANCY =             -0.03    PERCENT DISCREPANCY =             -0.00



1
 SUMMARY VOLUMETRIC BUDGET FOR GSFLOW 
 DATE: 05 12 1991              CUMULATIVE TIME STEP:      12
 MODFLOW STRESS PERIOD      9     CURRENT TIME STEP:     224     ITERATIONS:       6

 -----------------------------------------------------------------------------------

   CUMULATIVE VOLUMES               L**3   RATES FOR THIS TIME STEP           L**3/T
   ------------------                      ------------------------

                                     IN                                         IN
                                     --                                         --
        PRECIPITATION =        1.4029D+07          PRECIPITATION =                  
           STREAMFLOW =                               STREAMFLOW =                  
     GW BOUNDARY FLOW =             96.74       GW BOUNDARY FLOW =              1.24


                                    OUT                                        OUT
                                    ---                                        ---
   EVAPOTRANSPIRATION =        4858506.20     EVAPOTRANSPIRATION =          68750.33
           STREAMFLOW =        6458644.81             STREAMFLOW =          56975.75
     GW BOUNDARY FLOW =           8027.03       GW BOUNDARY FLOW =             34.89

   INFLOWS - OUTFLOWS =        2704140.86     INFLOWS - OUTFLOWS =        -125759.74
             --------                                   --------

 TOTAL STORAGE CHANGE =        2707913.48         STORAGE CHANGE =        -125759.85
       --------------                             --------------
         LAND SURFACE =         176420.23           LAND SURFACE =         -63628.08
            SOIL ZONE =        4268727.73              SOIL ZONE =         -67395.73
     UNSATURATED ZONE =       -2611348.88       UNSATURATED ZONE =           4285.77
       SATURATED ZONE =         874114.40         SATURATED ZONE =            978.19

 OVERALL BUDGET ERROR =          -3772.62           BUDGET ERROR =              0.11


  PERCENT DISCREPANCY =             -0.03    PERCENT DISCREPANCY =              0.00



1
 SUMMARY VOLUMETRIC BUDGET FOR GSFLOW 
 DATE: 05 19 1991              CUMULATIVE TIME STEP:      19
 MODFLOW STRESS PERIOD      9     CURRENT TIME STEP:     231     ITERATIONS:       6

 -----------------------------------------------------------------------------------

   CUMULATIVE VOLUMES               L**3   RATES FOR THIS TIME STEP           L**3/T
   ------------------                      ------------------------

                                     IN                                         IN
                                     --                                         --
        PRECIPITATION =        1.4365D+07          PRECIPITATION =                  
           STREAMFLOW =                               STREAMFLOW =                  
     GW BOUNDARY FLOW =            105.57       GW BOUNDARY FLOW =              1.28


                                    OUT                                        OUT
                                    ---                                        ---
   EVAPOTRANSPIRATION =        5296941.90     EVAPOTRANSPIRATION =          20369.32
           STREAMFLOW =        6783237.34             STREAMFLOW =          42435.73
     GW BOUNDARY FLOW =           8269.73       GW BOUNDARY FLOW =             34.56

   INFLOWS - OUTFLOWS =        2277034.92     INFLOWS - OUTFLOWS =         -62838.33
             --------                                   --------

 TOTAL STORAGE CHANGE =        2280811.90         STORAGE CHANGE =         -62837.57
       --------------                             --------------
         LAND SURFACE =          87458.91           LAND SURFACE =         -21997.69
            SOIL ZONE =        3911070.53              SOIL ZONE =         -42161.06
     UNSATURATED ZONE =       -2595858.43       UNSATURATED ZONE =            812.03
       SATURATED ZONE =         878140.90         SATURATED ZONE =            509.14

 OVERALL BUDGET ERROR =          -3776.98           BUDGET ERROR =             -0.76


  PERCENT DISCREPANCY =             -0.03    PERCENT DISCREPANCY =             -0.00



1
 SUMMARY VOLUMETRIC BUDGET FOR GSFLOW 
 DATE: 05 26 1991              CUMULATIVE TIME STEP:      26
 MODFLOW STRESS PERIOD      9     CURRENT TIME STEP:     238     ITERATIONS:       7

 -----------------------------------------------------------------------------------

   CUMULATIVE VOLUMES               L**3   RATES FOR THIS TIME STEP           L**3/T
   ------------------                      ------------------------

                                     IN                                         IN
                                     --                                         --
        PRECIPITATION =        1.4426D+07          PRECIPITATION =                  
           STREAMFLOW =                               STREAMFLOW =                  
     GW BOUNDARY FLOW =            114.72       GW BOUNDARY FLOW =              1.33


                                    OUT                                        OUT
                                    ---                                        ---
   EVAPOTRANSPIRATION =        5981418.13     EVAPOTRANSPIRATION =          76940.71
           STREAMFLOW =        7023828.26             STREAMFLOW =          26145.80
     GW BOUNDARY FLOW =           8510.23       GW BOUNDARY FLOW =             34.17

   INFLOWS - OUTFLOWS =        1412855.71     INFLOWS - OUTFLOWS =        -103119.36
             --------                                   --------

 TOTAL STORAGE CHANGE =        1416642.50         STORAGE CHANGE =        -103116.72
       --------------                             --------------
         LAND SURFACE =           6863.60           LAND SURFACE =          -1470.07
            SOIL ZONE =        3135555.60              SOIL ZONE =         -97305.12
     UNSATURATED ZONE =       -2605720.37       UNSATURATED ZONE =          -4222.84
       SATURATED ZONE =         879943.68         SATURATED ZONE =           -118.67

 OVERALL BUDGET ERROR =          -3786.79           BUDGET ERROR =             -2.65


  PERCENT DISCREPANCY =             -0.03    PERCENT DISCREPANCY =             -0.00



1
 SUMMARY VOLUMETRIC BUDGET FOR GSFLOW 
 DATE: 06 02 1991              CUMULATIVE TIME STEP:       2
 MODFLOW STRESS PERIOD     10     CURRENT TIME STEP:     245     ITERATIONS:       6

 -----------------------------------------------------------------------------------

   CUMULATIVE VOLUMES               L**3   RATES FOR THIS TIME STEP           L**3/T
   ------------------                      ------------------------

                                     IN                                         IN
                                     --                                         --
        PRECIPITATION =        1.4671D+07          PRECIPITATION =                  
           STREAMFLOW =                               STREAMFLOW =                  
     GW BOUNDARY FLOW =            124.18       GW BOUNDARY FLOW =              1.37


                                    OUT                                        OUT
                                    ---                                        ---
   EVAPOTRANSPIRATION =        6570229.12     EVAPOTRANSPIRATION =         127630.39
           STREAMFLOW =        7203493.03             STREAMFLOW =          22530.78
     GW BOUNDARY FLOW =           8748.76       GW BOUNDARY FLOW =             33.95

   INFLOWS - OUTFLOWS =         888628.06     INFLOWS - OUTFLOWS =        -150193.75
             --------                                   --------

 TOTAL STORAGE CHANGE =         892451.58         STORAGE CHANGE =        -150187.08
       --------------                             --------------
         LAND SURFACE =           1972.60           LAND SURFACE =           -646.60
            SOIL ZONE =        2659028.89              SOIL ZONE =        -142365.95
     UNSATURATED ZONE =       -2643972.11       UNSATURATED ZONE =          -6108.57
       SATURATED ZONE =         875422.20         SATURATED ZONE =          -1065.96

 OVERALL BUDGET ERROR =          -3823.52           BUDGET ERROR =             -6.66


  PERCENT DISCREPANCY =             -0.03    PERCENT DISCREPANCY =             -0.00



1
 SUMMARY VOLUMETRIC BUDGET FOR GSFLOW 
 DATE: 06 09 1991              CUMULATIVE TIME STEP:       9
 MODFLOW STRESS PERIOD     10     CURRENT TIME STEP:     252     ITERATIONS:       6

 -----------------------------------------------------------------------------------

   CUMULATIVE VOLUMES               L**3   RATES FOR THIS TIME STEP           L**3/T
   ------------------                      ------------------------

                                     IN                                         IN
                                     --                                         --
        PRECIPITATION =        1.4671D+07          PRECIPITATION =                  
           STREAMFLOW =                               STREAMFLOW =                  
     GW BOUNDARY FLOW =            133.95       GW BOUNDARY FLOW =              1.41


                                    OUT                                        OUT
                                    ---                                        ---
   EVAPOTRANSPIRATION =        7359123.04     EVAPOTRANSPIRATION =         172550.47
           STREAMFLOW =        7341223.02             STREAMFLOW =          17862.98
     GW BOUNDARY FLOW =           8985.42       GW BOUNDARY FLOW =             33.70

   INFLOWS - OUTFLOWS =         -38222.73     INFLOWS - OUTFLOWS =        -190445.75
             --------                                   --------

 TOTAL STORAGE CHANGE =         -34336.94         STORAGE CHANGE =        -190435.57
       --------------                             --------------
         LAND SURFACE =             15.64           LAND SURFACE =            -36.78
            SOIL ZONE =        1799309.82              SOIL ZONE =        -179623.31
     UNSATURATED ZONE =       -2698025.17       UNSATURATED ZONE =          -8783.15
       SATURATED ZONE =         864362.77         SATURATED ZONE =          -1992.34

 OVERALL BUDGET ERROR =          -3885.80           BUDGET ERROR =            -10.17


  PERCENT DISCREPANCY =             -0.03    PERCENT DISCREPANCY =             -0.01



1
 SUMMARY VOLUMETRIC BUDGET FOR GSFLOW 
 DATE: 06 16 1991              CUMULATIVE TIME STEP:      16
 MODFLOW STRESS PERIOD     10     CURRENT TIME STEP:     259     ITERATIONS:       6

 -----------------------------------------------------------------------------------

   CUMULATIVE VOLUMES               L**3   RATES FOR THIS TIME STEP           L**3/T
   ------------------                      ------------------------

                                     IN                                         IN
                                     --                                         --
        PRECIPITATION =        1.4671D+07          PRECIPITATION =                  
           STREAMFLOW =                               STREAMFLOW =                  
     GW BOUNDARY FLOW =            144.02       GW BOUNDARY FLOW =              1.46


                                    OUT                                        OUT
                                    ---                                        ---
   EVAPOTRANSPIRATION =        8371538.25     EVAPOTRANSPIRATION =         115380.91
           STREAMFLOW =        7457209.43             STREAMFLOW =          16109.61
     GW BOUNDARY FLOW =           9220.54       GW BOUNDARY FLOW =             33.51

   INFLOWS - OUTFLOWS =       -1166849.41     INFLOWS - OUTFLOWS =        -131522.58
             --------                                   --------

 TOTAL STORAGE CHANGE =       -1162853.28         STORAGE CHANGE =        -131511.43
       --------------                             --------------
         LAND SURFACE =                             LAND SURFACE =                  
            SOIL ZONE =         802664.57              SOIL ZONE =        -107161.80
     UNSATURATED ZONE =       -2808868.11       UNSATURATED ZONE =         -20304.96
       SATURATED ZONE =         843350.26         SATURATED ZONE =          -4044.67

 OVERALL BUDGET ERROR =          -3996.13           BUDGET ERROR =            -11.15


  PERCENT DISCREPANCY =             -0.03    PERCENT DISCREPANCY =             -0.01



1
 SUMMARY VOLUMETRIC BUDGET FOR GSFLOW 
 DATE: 06 23 1991              CUMULATIVE TIME STEP:      23
 MODFLOW STRESS PERIOD     10     CURRENT TIME STEP:     266     ITERATIONS:       6

 -----------------------------------------------------------------------------------

   CUMULATIVE VOLUMES               L**3   RATES FOR THIS TIME STEP           L**3/T
   ------------------                      ------------------------

                                     IN                                         IN
                                     --                                         --
        PRECIPITATION =        1.4671D+07          PRECIPITATION =                  
           STREAMFLOW =                               STREAMFLOW =                  
     GW BOUNDARY FLOW =            154.32       GW BOUNDARY FLOW =              1.46


                                    OUT                                        OUT
                                    ---                                        ---
   EVAPOTRANSPIRATION =        8898738.52     EVAPOTRANSPIRATION =          37136.75
           STREAMFLOW =        7566550.51             STREAMFLOW =          15327.46
     GW BOUNDARY FLOW =           9454.46       GW BOUNDARY FLOW =             33.35

   INFLOWS - OUTFLOWS =       -1803614.36     INFLOWS - OUTFLOWS =         -52496.10
             --------                                   --------

 TOTAL STORAGE CHANGE =       -1799516.20         STORAGE CHANGE =         -52485.25
       --------------                             --------------
         LAND SURFACE =                             LAND SURFACE =                  
            SOIL ZONE =         330372.75              SOIL ZONE =         -33091.16
     UNSATURATED ZONE =       -2938473.26       UNSATURATED ZONE =         -14122.15
       SATURATED ZONE =         808584.31         SATURATED ZONE =          -5271.94

 OVERALL BUDGET ERROR =          -4098.16           BUDGET ERROR =            -10.85


  PERCENT DISCREPANCY =             -0.02    PERCENT DISCREPANCY =             -0.02



1
 SUMMARY VOLUMETRIC BUDGET FOR GSFLOW 
 DATE: 06 30 1991              CUMULATIVE TIME STEP:      30
 MODFLOW STRESS PERIOD     10     CURRENT TIME STEP:     273     ITERATIONS:       6

 -----------------------------------------------------------------------------------

   CUMULATIVE VOLUMES               L**3   RATES FOR THIS TIME STEP           L**3/T
   ------------------                      ------------------------

                                     IN                                         IN
[...]
                                    ---                                        ---
   EVAPOTRANSPIRATION =        1.4018D+08     EVAPOTRANSPIRATION =          13799.61
           STREAMFLOW =        1.2555D+08             STREAMFLOW =           2604.67
     GW BOUNDARY FLOW =          95426.39       GW BOUNDARY FLOW =             21.74

   INFLOWS - OUTFLOWS =       -2.5810D+07     INFLOWS - OUTFLOWS =         -16419.84
             --------                                   --------

 TOTAL STORAGE CHANGE =       -2.5793D+07         STORAGE CHANGE =         -16401.18
       --------------                             --------------
         LAND SURFACE =                             LAND SURFACE =                  
            SOIL ZONE =       -2008677.56              SOIL ZONE =          -2507.85
     UNSATURATED ZONE =         403528.63       UNSATURATED ZONE =          -1728.66
       SATURATED ZONE =       -2.4188D+07         SATURATED ZONE =         -12164.67

 OVERALL BUDGET ERROR =         -16801.16           BUDGET ERROR =            -18.65


  PERCENT DISCREPANCY =             -0.01    PERCENT DISCREPANCY =             -0.11



1
 SUMMARY VOLUMETRIC BUDGET FOR GSFLOW 
 DATE: 09 03 2000              CUMULATIVE TIME STEP:       3
 MODFLOW STRESS PERIOD    121     CURRENT TIME STEP:    3626     ITERATIONS:      13

 -----------------------------------------------------------------------------------

   CUMULATIVE VOLUMES               L**3   RATES FOR THIS TIME STEP           L**3/T
   ------------------                      ------------------------

                                     IN                                         IN
                                     --                                         --
        PRECIPITATION =        2.4013D+08          PRECIPITATION =                  
           STREAMFLOW =                               STREAMFLOW =                  
     GW BOUNDARY FLOW =          14969.10       GW BOUNDARY FLOW =              6.20


                                    OUT                                        OUT
                                    ---                                        ---
   EVAPOTRANSPIRATION =        1.4025D+08     EVAPOTRANSPIRATION =          27418.95
           STREAMFLOW =        1.2558D+08             STREAMFLOW =           6390.87
     GW BOUNDARY FLOW =          95579.97       GW BOUNDARY FLOW =             22.19

   INFLOWS - OUTFLOWS =       -2.5787D+07     INFLOWS - OUTFLOWS =         -33825.80
             --------                                   --------

 TOTAL STORAGE CHANGE =       -2.5770D+07         STORAGE CHANGE =         -33825.42
       --------------                             --------------
         LAND SURFACE =           6812.65           LAND SURFACE =         -27343.30
            SOIL ZONE =       -1920592.51              SOIL ZONE =            -15.02
     UNSATURATED ZONE =         391589.79       UNSATURATED ZONE =          -1700.89
       SATURATED ZONE =       -2.4248D+07         SATURATED ZONE =          -4766.21

 OVERALL BUDGET ERROR =         -16802.53           BUDGET ERROR =             -0.38


  PERCENT DISCREPANCY =             -0.01    PERCENT DISCREPANCY =             -0.00



1
 SUMMARY VOLUMETRIC BUDGET FOR GSFLOW 
 DATE: 09 10 2000              CUMULATIVE TIME STEP:      10
 MODFLOW STRESS PERIOD    121     CURRENT TIME STEP:    3633     ITERATIONS:      13

 -----------------------------------------------------------------------------------

   CUMULATIVE VOLUMES               L**3   RATES FOR THIS TIME STEP           L**3/T
   ------------------                      ------------------------

                                     IN                                         IN
                                     --                                         --
        PRECIPITATION =        2.4013D+08          PRECIPITATION =                  
           STREAMFLOW =                               STREAMFLOW =                  
     GW BOUNDARY FLOW =          15012.53       GW BOUNDARY FLOW =              6.21


                                    OUT                                        OUT
                                    ---                                        ---
   EVAPOTRANSPIRATION =        1.4033D+08     EVAPOTRANSPIRATION =          10256.41
           STREAMFLOW =        1.2561D+08             STREAMFLOW =           4269.88
     GW BOUNDARY FLOW =          95733.90       GW BOUNDARY FLOW =             21.96

   INFLOWS - OUTFLOWS =       -2.5899D+07     INFLOWS - OUTFLOWS =         -14542.05
             --------                                   --------

 TOTAL STORAGE CHANGE =       -2.5882D+07         STORAGE CHANGE =         -14541.27
       --------------                             --------------
         LAND SURFACE =                             LAND SURFACE =                  
            SOIL ZONE =       -1955150.55              SOIL ZONE =          -4205.20
     UNSATURATED ZONE =         379847.05       UNSATURATED ZONE =          -1708.81
       SATURATED ZONE =       -2.4307D+07         SATURATED ZONE =          -8627.27

 OVERALL BUDGET ERROR =         -16808.27           BUDGET ERROR =             -0.78


  PERCENT DISCREPANCY =             -0.01    PERCENT DISCREPANCY =             -0.01



1
 SUMMARY VOLUMETRIC BUDGET FOR GSFLOW 
 DATE: 09 17 2000              CUMULATIVE TIME STEP:      17
 MODFLOW STRESS PERIOD    121     CURRENT TIME STEP:    3640     ITERATIONS:       7

 -----------------------------------------------------------------------------------

   CUMULATIVE VOLUMES               L**3   RATES FOR THIS TIME STEP           L**3/T
   ------------------                      ------------------------

                                     IN                                         IN
                                     --                                         --
        PRECIPITATION =        2.4013D+08          PRECIPITATION =                  
           STREAMFLOW =                               STREAMFLOW =                  
     GW BOUNDARY FLOW =          15056.02       GW BOUNDARY FLOW =              6.22


                                    OUT                                        OUT
                                    ---                                        ---
   EVAPOTRANSPIRATION =        1.4042D+08     EVAPOTRANSPIRATION =          10193.85
           STREAMFLOW =        1.2564D+08             STREAMFLOW =           3992.72
     GW BOUNDARY FLOW =          95887.24       GW BOUNDARY FLOW =             21.92

   INFLOWS - OUTFLOWS =       -2.6007D+07     INFLOWS - OUTFLOWS =         -14202.28
             --------                                   --------

 TOTAL STORAGE CHANGE =       -2.5990D+07         STORAGE CHANGE =         -14200.88
       --------------                             --------------
         LAND SURFACE =                             LAND SURFACE =                  
            SOIL ZONE =       -1981969.23              SOIL ZONE =          -2764.24
     UNSATURATED ZONE =         368118.23       UNSATURATED ZONE =          -1662.10
       SATURATED ZONE =       -2.4377D+07         SATURATED ZONE =          -9774.54

 OVERALL BUDGET ERROR =         -16811.08           BUDGET ERROR =             -1.40


  PERCENT DISCREPANCY =             -0.01    PERCENT DISCREPANCY =             -0.01



1
 SUMMARY VOLUMETRIC BUDGET FOR GSFLOW 
 DATE: 09 24 2000              CUMULATIVE TIME STEP:      24
 MODFLOW STRESS PERIOD    121     CURRENT TIME STEP:    3647     ITERATIONS:       5

 -----------------------------------------------------------------------------------

   CUMULATIVE VOLUMES               L**3   RATES FOR THIS TIME STEP           L**3/T
   ------------------                      ------------------------

                                     IN                                         IN
                                     --                                         --
        PRECIPITATION =        2.4013D+08          PRECIPITATION =                  
           STREAMFLOW =                               STREAMFLOW =                  
     GW BOUNDARY FLOW =          15099.57       GW BOUNDARY FLOW =              6.23


                                    OUT                                        OUT
                                    ---                                        ---
   EVAPOTRANSPIRATION =        1.4047D+08     EVAPOTRANSPIRATION =           4988.73
           STREAMFLOW =        1.2567D+08             STREAMFLOW =           5046.36
     GW BOUNDARY FLOW =          96040.97       GW BOUNDARY FLOW =             22.04

   INFLOWS - OUTFLOWS =       -2.6092D+07     INFLOWS - OUTFLOWS =         -10050.91
             --------                                   --------

 TOTAL STORAGE CHANGE =       -2.6076D+07         STORAGE CHANGE =         -10046.56
       --------------                             --------------
         LAND SURFACE =                             LAND SURFACE =                  
            SOIL ZONE =       -1994171.37              SOIL ZONE =           -948.64
     UNSATURATED ZONE =         356908.35       UNSATURATED ZONE =          -1543.18
       SATURATED ZONE =       -2.4438D+07         SATURATED ZONE =          -7554.73

 OVERALL BUDGET ERROR =         -16820.78           BUDGET ERROR =             -4.35


  PERCENT DISCREPANCY =             -0.01    PERCENT DISCREPANCY =             -0.04



1
 SUMMARY VOLUMETRIC BUDGET FOR GSFLOW 
 DATE: 10 01 2000              CUMULATIVE TIME STEP:       1
 MODFLOW STRESS PERIOD    122     CURRENT TIME STEP:    3654     ITERATIONS:       7

 -----------------------------------------------------------------------------------

   CUMULATIVE VOLUMES               L**3   RATES FOR THIS TIME STEP           L**3/T
   ------------------                      ------------------------

                                     IN                                         IN
                                     --                                         --
        PRECIPITATION =        2.4013D+08          PRECIPITATION =                  
           STREAMFLOW =                               STREAMFLOW =                  
     GW BOUNDARY FLOW =          15143.18       GW BOUNDARY FLOW =              6.23


                                    OUT                                        OUT
                                    ---                                        ---
   EVAPOTRANSPIRATION =        1.4053D+08     EVAPOTRANSPIRATION =           8032.04
           STREAMFLOW =        1.2570D+08             STREAMFLOW =           4242.91
     GW BOUNDARY FLOW =          96194.60       GW BOUNDARY FLOW =             21.94

   INFLOWS - OUTFLOWS =       -2.6180D+07     INFLOWS - OUTFLOWS =         -12290.66
             --------                                   --------

 TOTAL STORAGE CHANGE =       -2.6163D+07         STORAGE CHANGE =         -12291.04
       --------------                             --------------
         LAND SURFACE =                             LAND SURFACE =                  
            SOIL ZONE =       -2004380.58              SOIL ZONE =          -1334.49
     UNSATURATED ZONE =         345533.46       UNSATURATED ZONE =          -1603.67
       SATURATED ZONE =       -2.4504D+07         SATURATED ZONE =          -9352.88

 OVERALL BUDGET ERROR =         -16823.95           BUDGET ERROR =              0.37


  PERCENT DISCREPANCY =             -0.01    PERCENT DISCREPANCY =              0.00



1
 SUMMARY VOLUMETRIC BUDGET FOR GSFLOW 
 DATE: 10 08 2000              CUMULATIVE TIME STEP:       8
 MODFLOW STRESS PERIOD    122     CURRENT TIME STEP:    3661     ITERATIONS:       4

 -----------------------------------------------------------------------------------

   CUMULATIVE VOLUMES               L**3   RATES FOR THIS TIME STEP           L**3/T
   ------------------                      ------------------------

                                     IN                                         IN
                                     --                                         --
        PRECIPITATION =        2.4013D+08          PRECIPITATION =                  
           STREAMFLOW =                               STREAMFLOW =                  
     GW BOUNDARY FLOW =          15186.85       GW BOUNDARY FLOW =              6.24


                                    OUT                                        OUT
                                    ---                                        ---
   EVAPOTRANSPIRATION =        1.4058D+08     EVAPOTRANSPIRATION =           6750.98
           STREAMFLOW =        1.2573D+08             STREAMFLOW =           4703.49
     GW BOUNDARY FLOW =          96348.44       GW BOUNDARY FLOW =             21.99

   INFLOWS - OUTFLOWS =       -2.6261D+07     INFLOWS - OUTFLOWS =         -11470.21
             --------                                   --------

 TOTAL STORAGE CHANGE =       -2.6244D+07         STORAGE CHANGE =         -11452.58
       --------------                             --------------
         LAND SURFACE =                             LAND SURFACE =                  
            SOIL ZONE =       -2011953.95              SOIL ZONE =           -989.31
     UNSATURATED ZONE =         334490.85       UNSATURATED ZONE =          -1578.21
       SATURATED ZONE =       -2.4567D+07         SATURATED ZONE =          -8885.05

 OVERALL BUDGET ERROR =         -16842.87           BUDGET ERROR =            -17.64


  PERCENT DISCREPANCY =             -0.01    PERCENT DISCREPANCY =             -0.15



1
 SUMMARY VOLUMETRIC BUDGET FOR GSFLOW 
 DATE: 10 15 2000              CUMULATIVE TIME STEP:      15
 MODFLOW STRESS PERIOD    122     CURRENT TIME STEP:    3668     ITERATIONS:       4

 -----------------------------------------------------------------------------------

   CUMULATIVE VOLUMES               L**3   RATES FOR THIS TIME STEP           L**3/T
   ------------------                      ------------------------

                                     IN                                         IN
                                     --                                         --
        PRECIPITATION =        2.4034D+08          PRECIPITATION =                  
           STREAMFLOW =                               STREAMFLOW =                  
     GW BOUNDARY FLOW =          15230.56       GW BOUNDARY FLOW =              6.25


                                    OUT                                        OUT
                                    ---                                        ---
   EVAPOTRANSPIRATION =        1.4063D+08     EVAPOTRANSPIRATION =           7821.23
           STREAMFLOW =        1.2578D+08             STREAMFLOW =           6063.02
     GW BOUNDARY FLOW =          96503.76       GW BOUNDARY FLOW =             22.15

   INFLOWS - OUTFLOWS =       -2.6152D+07     INFLOWS - OUTFLOWS =         -13900.15
             --------                                   --------

 TOTAL STORAGE CHANGE =       -2.6135D+07         STORAGE CHANGE =         -13882.91
       --------------                             --------------
         LAND SURFACE =             11.44           LAND SURFACE =            -58.62
            SOIL ZONE =       -1848962.27              SOIL ZONE =          -5139.07
     UNSATURATED ZONE =         323366.46       UNSATURATED ZONE =          -1614.19
       SATURATED ZONE =       -2.4609D+07         SATURATED ZONE =          -7071.04

 OVERALL BUDGET ERROR =         -16871.93           BUDGET ERROR =            -17.24


  PERCENT DISCREPANCY =             -0.01    PERCENT DISCREPANCY =             -0.12



1
 SUMMARY VOLUMETRIC BUDGET FOR GSFLOW 
 DATE: 10 22 2000              CUMULATIVE TIME STEP:      22
 MODFLOW STRESS PERIOD    122     CURRENT TIME STEP:    3675     ITERATIONS:       8

 -----------------------------------------------------------------------------------

   CUMULATIVE VOLUMES               L**3   RATES FOR THIS TIME STEP           L**3/T
   ------------------                      ------------------------

                                     IN                                         IN
                                     --                                         --
        PRECIPITATION =        2.4039D+08          PRECIPITATION =                  
           STREAMFLOW =                               STREAMFLOW =                  
     GW BOUNDARY FLOW =          15274.32       GW BOUNDARY FLOW =              6.25


                                    OUT                                        OUT
                                    ---                                        ---
   EVAPOTRANSPIRATION =        1.4070D+08     EVAPOTRANSPIRATION =           8011.64
           STREAMFLOW =        1.2582D+08             STREAMFLOW =           7058.19
     GW BOUNDARY FLOW =          96659.00       GW BOUNDARY FLOW =             22.28

   INFLOWS - OUTFLOWS =       -2.6207D+07     INFLOWS - OUTFLOWS =         -15085.86
             --------                                   --------

 TOTAL STORAGE CHANGE =       -2.6190D+07         STORAGE CHANGE =         -15085.83
       --------------                             --------------
         LAND SURFACE =          16310.09           LAND SURFACE =          -7992.89
            SOIL ZONE =       -1861102.83              SOIL ZONE =             29.57
     UNSATURATED ZONE =         311151.72       UNSATURATED ZONE =          -2596.20
       SATURATED ZONE =       -2.4656D+07         SATURATED ZONE =          -4526.31

 OVERALL BUDGET ERROR =         -16899.63           BUDGET ERROR =             -0.03


  PERCENT DISCREPANCY =             -0.01    PERCENT DISCREPANCY =             -0.00



1
 SUMMARY VOLUMETRIC BUDGET FOR GSFLOW 
 DATE: 10 29 2000              CUMULATIVE TIME STEP:      29
 MODFLOW STRESS PERIOD    122     CURRENT TIME STEP:    3682     ITERATIONS:       6

 -----------------------------------------------------------------------------------

   CUMULATIVE VOLUMES               L**3   RATES FOR THIS TIME STEP           L**3/T
   ------------------                      ------------------------

                                     IN                                         IN
                                     --                                         --
        PRECIPITATION =        2.4111D+08          PRECIPITATION =          24578.20
           STREAMFLOW =                               STREAMFLOW =                  
     GW BOUNDARY FLOW =          15318.12       GW BOUNDARY FLOW =              6.26


                                    OUT                                        OUT
                                    ---                                        ---
   EVAPOTRANSPIRATION =        1.4074D+08     EVAPOTRANSPIRATION =           4545.03
           STREAMFLOW =        1.2587D+08             STREAMFLOW =           7077.36
     GW BOUNDARY FLOW =          96814.89       GW BOUNDARY FLOW =             22.31

   INFLOWS - OUTFLOWS =       -2.5575D+07     INFLOWS - OUTFLOWS =          12939.76
             --------                                   --------

 TOTAL STORAGE CHANGE =       -2.5558D+07         STORAGE CHANGE =          12940.99
       --------------                             --------------
         LAND SURFACE =         446727.37           LAND SURFACE =          21846.62
            SOIL ZONE =       -1606599.82              SOIL ZONE =          -1576.13
     UNSATURATED ZONE =         300251.50       UNSATURATED ZONE =          -1549.92
       SATURATED ZONE =       -2.4699D+07         SATURATED ZONE =          -5779.58

 OVERALL BUDGET ERROR =         -16903.79           BUDGET ERROR =             -1.23


  PERCENT DISCREPANCY =             -0.01    PERCENT DISCREPANCY =             -0.01



