

                          U.S. Geological Survey
        Coupled Groundwater and Surface-water FLOW model (GSFLOW)
                         Version 2.1.0 03/04/2020

    An integration of the Precipitation-Runoff Modeling System (PRMS)
    and the Modular Groundwater Model (MODFLOW-NWT and MODFLOW-2005)


               Precipitation-Runoff Modeling System (PRMS)
                       Version 5.1.0 03/04/2020

                            MODFLOW-NWT-SWR1 
  U.S. GEOLOGICAL SURVEY MODULAR FINITE-DIFFERENCE GROUNDWATER-FLOW MODEL
                         WITH NEWTON FORMULATION
                         Version 1.1.4 4/01/2018
              BASED ON MODFLOW-2005 Version 1.12.0 02/03/2017
                      SWR1 Version 1.04.0 09/15/2016

              PROCESSES: GWF and OBS
              PACKAGES:  BAS, BCF, CHD, DE4, FHB, GAG, GHB,
                         HFB, HUF, LAK LPF, MNW1, MNW2, NWT,
                         PCG, SFR, SIP, UPW, UZF, WEL, SWI, SWT, LMT


        Process            Available Modules
--------------------------------------------------------------------
  Basin Definition: basin
    Cascading Flow: cascade
  Time Series Data: obs, water_use_read, dynamic_param_read
   Potet Solar Rad: soltab
  Temperature Dist: temp_1sta, temp_laps, temp_dist2, climate_hru
       Precip Dist: precip_1sta, precip_laps, precip_dist2,
                    climate_hru
Temp & Precip Dist: xyz_dist, ide_dist
    Solar Rad Dist: ccsolrad, ddsolrad, climate_hru
Transpiration Dist: transp_tindex, climate_hru, transp_frost
      Potential ET: potet_hamon, potet_jh, potet_pan, climate_hru,
                    potet_hs, potet_pt, potet_pm, potet_pm_sta
      Interception: intcp
     Snow Dynamics: snowcomp
    Surface Runoff: srunoff_smidx, srunoff_carea
         Soil Zone: soilzone
       Groundwater: gwflow
Streamflow Routing: strmflow, strmflow_in_out, muskingum,
                    muskingum_lake, muskingum_mann
Stream Temperature: stream_temp
    Output Summary: basin_sum, subbasin, map_results, prms_summary,
                    nhru_summary, nsub_summary, water_balance
                    basin_summary, nsegment_summary
     Preprocessing: write_climate_hru, frost_date
--------------------------------------------------------------------


    Active modules listed in the order in which they are called

        Process                   Module                Version Date
====================================================================
GSFLOW Computation Order       gsflow_prms                2020-03-04
Basin Definition               basin                      2019-11-14
Cascading Flow                 cascade                    2019-09-25
Common States and Fluxes       climateflow                2020-01-10
Potential Solar Radiation      soltab                     2016-09-09
PRMS Set Time Variables        prms_time                  2015-03-31
Time Series Data               obs                        2020-01-09
Temperature Distribution       temp_1sta                  2018-01-16
Precipitation Distribution     precip_1sta                2016-10-21
Solar Radiation Distribution   ddsolrad                   2019-04-04
Transpiration Distribution     transp_tindex              2015-01-06
Potential Evapotranspiration   potet_jh                   2019-04-04
Canopy Interception            intcp                      2020-03-03
Snow Dynamics                  snowcomp                   2019-11-27
Surface Runoff                 srunoff_smidx              2020-03-03
Soil Zone Computations         soilzone                   2020-01-10
GSFLOW PRMS to MODFLOW         gsflow_prms2mf             2019-10-30
GSFLOW MODFLOW to PRMS         gsflow_mf2prms             2017-11-15
GSFLOW Output Budget Summary   gsflow_budget              2019-10-30
GSFLOW Output CSV Summary      gsflow_sum                 2019-10-31
Nhru Output Summary            nhru_summary               2019-10-25
Basin Output Summary           basin_summary              2018-04-05
Nsegment Output Summary        nsegment_summary           2018-06-11
====================================================================
GSFLOW MODFLOW main            gsflow_modflow             2019-10-30
====================================================================
MODFLOW Packages
====================================================================
UZF-NWT Package                gwf2uzf1_NWT               2019-09-10
SFR-NWT Package                gwf2sfr7_NWT               2017-03-08
====================================================================

Using NAME file: sagehen_gsflow_LowTrig.nam

Using Solver Package: NWT 

Steady state simulation successful, used 95 iterations

Using Control File: .\gsflow_gsflow_LowTrig.control

Using Parameter File: ..\input\prms\sagehen_grid_v5_HighKc.params

Writing PRMS Water Budget File: ..\output\prms\sagehen_LowTrig.out

mxsziter =  50

Tolerance check for gvr_hru_pct:  0.5000000D-05

Percent difference between GVR mapping and active model domain:  0.0000000D+00

Water Budget print frequency is:   7

Writing GSFLOW Water Budget File: ..\output\gsflow_LowTrig.out

Writing GSFLOW CSV File: ..\output\gsflow_LowTrig.csv

Simulation time period: 1990/10/01 - 2000/10/31

====================================================================

Date: 1990/10/01; Stress:  2; Step:     1; Simulation step:    1
                  MF iterations:       10; SZ iterations:     10

Date: 1990/10/02; Stress:  2; Step:     2; Simulation step:    2
                  MF iterations:        8; SZ iterations:      8

Date: 1990/10/03; Stress:  2; Step:     3; Simulation step:    3
                  MF iterations:        7; SZ iterations:      7

Date: 1990/10/04; Stress:  2; Step:     4; Simulation step:    4
                  MF iterations:        7; SZ iterations:      7

Date: 1990/10/05; Stress:  2; Step:     5; Simulation step:    5
                  MF iterations:        7; SZ iterations:      7

Date: 1990/10/06; Stress:  2; Step:     6; Simulation step:    6
                  MF iterations:        7; SZ iterations:      7

Date: 1990/10/07; Stress:  2; Step:     7; Simulation step:    7
                  MF iterations:        9; SZ iterations:      9

Date: 1990/10/08; Stress:  2; Step:     8; Simulation step:    8
                  MF iterations:       11; SZ iterations:     11

Date: 1990/10/09; Stress:  2; Step:     9; Simulation step:    9
                  MF iterations:        8; SZ iterations:      8

Date: 1990/10/10; Stress:  2; Step:    10; Simulation step:   10
                  MF iterations:        7; SZ iterations:      7

Date: 1990/10/11; Stress:  2; Step:    11; Simulation step:   11
                  MF iterations:        7; SZ iterations:      7

Date: 1990/10/12; Stress:  2; Step:    12; Simulation step:   12
                  MF iterations:        7; SZ iterations:      7

Date: 1990/10/13; Stress:  2; Step:    13; Simulation step:   13
                  MF iterations:        8; SZ iterations:      8

Date: 1990/10/14; Stress:  2; Step:    14; Simulation step:   14
                  MF iterations:        6; SZ iterations:      6

Date: 1990/10/15; Stress:  2; Step:    15; Simulation step:   15
                  MF iterations:        7; SZ iterations:      7

Date: 1990/10/16; Stress:  2; Step:    16; Simulation step:   16
                  MF iterations:        6; SZ iterations:      6

Date: 1990/10/17; Stress:  2; Step:    17; Simulation step:   17
                  MF iterations:        6; SZ iterations:      6

Date: 1990/10/18; Stress:  2; Step:    18; Simulation step:   18
                  MF iterations:        7; SZ iterations:      7

Date: 1990/10/19; Stress:  2; Step:    19; Simulation step:   19
                  MF iterations:        7; SZ iterations:      7

Date: 1990/10/20; Stress:  2; Step:    20; Simulation step:   20
                  MF iterations:        6; SZ iterations:      6

Date: 1990/10/21; Stress:  2; Step:    21; Simulation step:   21
                  MF iterations:        6; SZ iterations:      6

Date: 1990/10/22; Stress:  2; Step:    22; Simulation step:   22
                  MF iterations:        7; SZ iterations:      7

Date: 1990/10/23; Stress:  2; Step:    23; Simulation step:   23
                  MF iterations:        6; SZ iterations:      6

Date: 1990/10/24; Stress:  2; Step:    24; Simulation step:   24
                  MF iterations:        6; SZ iterations:      6

Date: 1990/10/25; Stress:  2; Step:    25; Simulation step:   25
                  MF iterations:        6; SZ iterations:      6

Date: 1990/10/26; Stress:  2; Step:    26; Simulation step:   26
                  MF iterations:        6; SZ iterations:      6

Date: 1990/10/27; Stress:  2; Step:    27; Simulation step:   27
                  MF iterations:        6; SZ iterations:      6

Date: 1990/10/28; Stress:  2; Step:    28; Simulation step:   28
                  MF iterations:        6; SZ iterations:      6

Date: 1990/10/29; Stress:  2; Step:    29; Simulation step:   29
                  MF iterations:        6; SZ iterations:      6

Date: 1990/10/30; Stress:  2; Step:    30; Simulation step:   30
                  MF iterations:        6; SZ iterations:      6

Date: 1990/10/31; Stress:  2; Step:    31; Simulation step:   31
                  MF iterations:        7; SZ iterations:      7


***WARNING***
Non-zero values were specified for precipitation,
streamflow, and ET for streams in MODFLOW input files.
These values are set to zero for GSFLOW simulations

Date: 1990/11/01; Stress:  3; Step:     1; Simulation step:   32
                  MF iterations:        6; SZ iterations:      6

Date: 1990/11/02; Stress:  3; Step:     2; Simulation step:   33
                  MF iterations:        6; SZ iterations:      6

Date: 1990/11/03; Stress:  3; Step:     3; Simulation step:   34
                  MF iterations:        6; SZ iterations:      6

Date: 1990/11/04; Stress:  3; Step:     4; Simulation step:   35
                  MF iterations:        6; SZ iterations:      6

Date: 1990/11/05; Stress:  3; Step:     5; Simulation step:   36
                  MF iterations:        6; SZ iterations:      6

Date: 1990/11/06; Stress:  3; Step:     6; Simulation step:   37
                  MF iterations:        6; SZ iterations:      6

Date: 1990/11/07; Stress:  3; Step:     7; Simulation step:   38
                  MF iterations:        6; SZ iterations:      6

Date: 1990/11/08; Stress:  3; Step:     8; Simulation step:   39
                  MF iterations:        6; SZ iterations:      6

Date: 1990/11/09; Stress:  3; Step:     9; Simulation step:   40
                  MF iterations:        6; SZ iterations:      6

Date: 1990/11/10; Stress:  3; Step:    10; Simulation step:   41
                  MF iterations:        6; SZ iterations:      6

Date: 1990/11/11; Stress:  3; Step:    11; Simulation step:   42
                  MF iterations:        6; SZ iterations:      6

Date: 1990/11/12; Stress:  3; Step:    12; Simulation step:   43
                  MF iterations:        6; SZ iterations:      6

Date: 1990/11/13; Stress:  3; Step:    13; Simulation step:   44
                  MF iterations:        6; SZ iterations:      6

Date: 1990/11/14; Stress:  3; Step:    14; Simulation step:   45
                  MF iterations:        6; SZ iterations:      6

Date: 1990/11/15; Stress:  3; Step:    15; Simulation step:   46
                  MF iterations:        6; SZ iterations:      6

Date: 1990/11/16; Stress:  3; Step:    16; Simulation step:   47
                  MF iterations:        6; SZ iterations:      6

Date: 1990/11/17; Stress:  3; Step:    17; Simulation step:   48
                  MF iterations:        6; SZ iterations:      6

Date: 1990/11/18; Stress:  3; Step:    18; Simulation step:   49
                  MF iterations:        6; SZ iterations:      6

Date: 1990/11/19; Stress:  3; Step:    19; Simulation step:   50
                  MF iterations:        6; SZ iterations:      6

Date: 1990/11/20; Stress:  3; Step:    20; Simulation step:   51
                  MF iterations:        8; SZ iterations:      8

Date: 1990/11/21; Stress:  3; Step:    21; Simulation step:   52
                  MF iterations:        6; SZ iterations:      6

Date: 1990/11/22; Stress:  3; Step:    22; Simulation step:   53
                  MF iterations:        6; SZ iterations:      6

Date: 1990/11/23; Stress:  3; Step:    23; Simulation step:   54
                  MF iterations:        6; SZ iterations:      6

Date: 1990/11/24; Stress:  3; Step:    24; Simulation step:   55
                  MF iterations:        6; SZ iterations:      6

Date: 1990/11/25; Stress:  3; Step:    25; Simulation step:   56
                  MF iterations:        6; SZ iterations:      6

Date: 1990/11/26; Stress:  3; Step:    26; Simulation step:   57
                  MF iterations:        6; SZ iterations:      6

Date: 1990/11/27; Stress:  3; Step:    27; Simulation step:   58
                  MF iterations:        6; SZ iterations:      6

Date: 1990/11/28; Stress:  3; Step:    28; Simulation step:   59
                  MF iterations:        6; SZ iterations:      6

Date: 1990/11/29; Stress:  3; Step:    29; Simulation step:   60
                  MF iterations:        6; SZ iterations:      6

Date: 1990/11/30; Stress:  3; Step:    30; Simulation step:   61
                  MF iterations:        6; SZ iterations:      6

Date: 1990/12/01; Stress:  4; Step:     1; Simulation step:   62
                  MF iterations:        6; SZ iterations:      6

Date: 1990/12/02; Stress:  4; Step:     2; Simulation step:   63
                  MF iterations:        6; SZ iterations:      6

Date: 1990/12/03; Stress:  4; Step:     3; Simulation step:   64
                  MF iterations:        6; SZ iterations:      6

Date: 1990/12/04; Stress:  4; Step:     4; Simulation step:   65
                  MF iterations:        6; SZ iterations:      6

Date: 1990/12/05; Stress:  4; Step:     5; Simulation step:   66
                  MF iterations:        6; SZ iterations:      6

Date: 1990/12/06; Stress:  4; Step:     6; Simulation step:   67
                  MF iterations:        6; SZ iterations:      6

Date: 1990/12/07; Stress:  4; Step:     7; Simulation step:   68
                  MF iterations:        6; SZ iterations:      6

Date: 1990/12/08; Stress:  4; Step:     8; Simulation step:   69
                  MF iterations:        6; SZ iterations:      6

Date: 1990/12/09; Stress:  4; Step:     9; Simulation step:   70
                  MF iterations:        5; SZ iterations:      5

Date: 1990/12/10; Stress:  4; Step:    10; Simulation step:   71
                  MF iterations:        5; SZ iterations:      5

Date: 1990/12/11; Stress:  4; Step:    11; Simulation step:   72
                  MF iterations:        5; SZ iterations:      5

Date: 1990/12/12; Stress:  4; Step:    12; Simulation step:   73
                  MF iterations:        5; SZ iterations:      5

Date: 1990/12/13; Stress:  4; Step:    13; Simulation step:   74
                  MF iterations:        5; SZ iterations:      5

Date: 1990/12/14; Stress:  4; Step:    14; Simulation step:   75
                  MF iterations:        5; SZ iterations:      5

Date: 1990/12/15; Stress:  4; Step:    15; Simulation step:   76
                  MF iterations:        5; SZ iterations:      5

Date: 1990/12/16; Stress:  4; Step:    16; Simulation step:   77
                  MF iterations:        5; SZ iterations:      5

Date: 1990/12/17; Stress:  4; Step:    17; Simulation step:   78
                  MF iterations:        5; SZ iterations:      5

Date: 1990/12/18; Stress:  4; Step:    18; Simulation step:   79
                  MF iterations:        5; SZ iterations:      5

Date: 1990/12/19; Stress:  4; Step:    19; Simulation step:   80
                  MF iterations:        5; SZ iterations:      5

Date: 1990/12/20; Stress:  4; Step:    20; Simulation step:   81
                  MF iterations:        5; SZ iterations:      5

Date: 1990/12/21; Stress:  4; Step:    21; Simulation step:   82
                  MF iterations:        5; SZ iterations:      5

Date: 1990/12/22; Stress:  4; Step:    22; Simulation step:   83
                  MF iterations:        5; SZ iterations:      5

Date: 1990/12/23; Stress:  4; Step:    23; Simulation step:   84
                  MF iterations:        5; SZ iterations:      5

Date: 1990/12/24; Stress:  4; Step:    24; Simulation step:   85
                  MF iterations:        5; SZ iterations:      5

Date: 1990/12/25; Stress:  4; Step:    25; Simulation step:   86
                  MF iterations:        5; SZ iterations:      5

Date: 1990/12/26; Stress:  4; Step:    26; Simulation step:   87
                  MF iterations:        5; SZ iterations:      5

Date: 1990/12/27; Stress:  4; Step:    27; Simulation step:   88
                  MF iterations:        5; SZ iterations:      5

Date: 1990/12/28; Stress:  4; Step:    28; Simulation step:   89
                  MF iterations:        5; SZ iterations:      5

Date: 1990/12/29; Stress:  4; Step:    29; Simulation step:   90
                  MF iterations:        5; SZ iterations:      5

Date: 1990/12/30; Stress:  4; Step:    30; Simulation step:   91
                  MF iterations:        5; SZ iterations:      5

Date: 1990/12/31; Stress:  4; Step:    31; Simulation step:   92
                  MF iterations:        5; SZ iterations:      5

Date: 1991/01/01; Stress:  5; Step:     1; Simulation step:   93
                  MF iterations:        5; SZ iterations:      5

Date: 1991/01/02; Stress:  5; Step:     2; Simulation step:   94
                  MF iterations:        5; SZ iterations:      5

Date: 1991/01/03; Stress:  5; Step:     3; Simulation step:   95
                  MF iterations:       10; SZ iterations:     10

Date: 1991/01/04; Stress:  5; Step:     4; Simulation step:   96
                  MF iterations:        8; SZ iterations:      8

Date: 1991/01/05; Stress:  5; Step:     5; Simulation step:   97
                  MF iterations:        7; SZ iterations:      7

Date: 1991/01/06; Stress:  5; Step:     6; Simulation step:   98
                  MF iterations:        6; SZ iterations:      6

Date: 1991/01/07; Stress:  5; Step:     7; Simulation step:   99
                  MF iterations:        5; SZ iterations:      5

Date: 1991/01/08; Stress:  5; Step:     8; Simulation step:  100
                  MF iterations:        6; SZ iterations:      6

Date: 1991/01/09; Stress:  5; Step:     9; Simulation step:  101
                  MF iterations:        5; SZ iterations:      5

Date: 1991/01/10; Stress:  5; Step:    10; Simulation step:  102
                  MF iterations:        5; SZ iterations:      5

Date: 1991/01/11; Stress:  5; Step:    11; Simulation step:  103
                  MF iterations:        5; SZ iterations:      5

Date: 1991/01/12; Stress:  5; Step:    12; Simulation step:  104
                  MF iterations:        5; SZ iterations:      5

Date: 1991/01/13; Stress:  5; Step:    13; Simulation step:  105
                  MF iterations:        6; SZ iterations:      6

Date: 1991/01/14; Stress:  5; Step:    14; Simulation step:  106
                  MF iterations:        6; SZ iterations:      6

Date: 1991/01/15; Stress:  5; Step:    15; Simulation step:  107
                  MF iterations:       11; SZ iterations:     11

Date: 1991/01/16; Stress:  5; Step:    16; Simulation step:  108
                  MF iterations:        8; SZ iterations:      8

Date: 1991/01/17; Stress:  5; Step:    17; Simulation step:  109
                  MF iterations:        7; SZ iterations:      7

Date: 1991/01/18; Stress:  5; Step:    18; Simulation step:  110
                  MF iterations:        6; SZ iterations:      6

Date: 1991/01/19; Stress:  5; Step:    19; Simulation step:  111
                  MF iterations:        6; SZ iterations:      6

Date: 1991/01/20; Stress:  5; Step:    20; Simulation step:  112
                  MF iterations:        6; SZ iterations:      6

Date: 1991/01/21; Stress:  5; Step:    21; Simulation step:  113
                  MF iterations:        5; SZ iterations:      5

Date: 1991/01/22; Stress:  5; Step:    22; Simulation step:  114
                  MF iterations:        5; SZ iterations:      5

Date: 1991/01/23; Stress:  5; Step:    23; Simulation step:  115
                  MF iterations:        5; SZ iterations:      5

Date: 1991/01/24; Stress:  5; Step:    24; Simulation step:  116
                  MF iterations:        5; SZ iterations:      5

Date: 1991/01/25; Stress:  5; Step:    25; Simulation step:  117
                  MF iterations:        5; SZ iterations:      5

Date: 1991/01/26; Stress:  5; Step:    26; Simulation step:  118
                  MF iterations:        5; SZ iterations:      5

Date: 1991/01/27; Stress:  5; Step:    27; Simulation step:  119
                  MF iterations:        5; SZ iterations:      5

Date: 1991/01/28; Stress:  5; Step:    28; Simulation step:  120
                  MF iterations:        5; SZ iterations:      5

Date: 1991/01/29; Stress:  5; Step:    29; Simulation step:  121
                  MF iterations:        5; SZ iterations:      5

Date: 1991/01/30; Stress:  5; Step:    30; Simulation step:  122
                  MF iterations:        5; SZ iterations:      5

Date: 1991/01/31; Stress:  5; Step:    31; Simulation step:  123
                  MF iterations:        6; SZ iterations:      6

Date: 1991/02/01; Stress:  6; Step:     1; Simulation step:  124
                  MF iterations:        5; SZ iterations:      5

Date: 1991/02/02; Stress:  6; Step:     2; Simulation step:  125
                  MF iterations:        5; SZ iterations:      5

Date: 1991/02/03; Stress:  6; Step:     3; Simulation step:  126
                  MF iterations:        6; SZ iterations:      6

Date: 1991/02/04; Stress:  6; Step:     4; Simulation step:  127
                  MF iterations:        6; SZ iterations:      6

Date: 1991/02/05; Stress:  6; Step:     5; Simulation step:  128
                  MF iterations:        5; SZ iterations:      5

Date: 1991/02/06; Stress:  6; Step:     6; Simulation step:  129
                  MF iterations:        6; SZ iterations:      6

Date: 1991/02/07; Stress:  6; Step:     7; Simulation step:  130
                  MF iterations:        5; SZ iterations:      5

Date: 1991/02/08; Stress:  6; Step:     8; Simulation step:  131
                  MF iterations:        5; SZ iterations:      5

Date: 1991/02/09; Stress:  6; Step:     9; Simulation step:  132
                  MF iterations:        5; SZ iterations:      5

Date: 1991/02/10; Stress:  6; Step:    10; Simulation step:  133
                  MF iterations:        5; SZ iterations:      5

Date: 1991/02/11; Stress:  6; Step:    11; Simulation step:  134
                  MF iterations:        5; SZ iterations:      5

Date: 1991/02/12; Stress:  6; Step:    12; Simulation step:  135
                  MF iterations:        5; SZ iterations:      5

Date: 1991/02/13; Stress:  6; Step:    13; Simulation step:  136
                  MF iterations:        5; SZ iterations:      5

Date: 1991/02/14; Stress:  6; Step:    14; Simulation step:  137
                  MF iterations:        5; SZ iterations:      5

Date: 1991/02/15; Stress:  6; Step:    15; Simulation step:  138
                  MF iterations:        5; SZ iterations:      5

Date: 1991/02/16; Stress:  6; Step:    16; Simulation step:  139
                  MF iterations:        5; SZ iterations:      5

Date: 1991/02/17; Stress:  6; Step:    17; Simulation step:  140
                  MF iterations:        5; SZ iterations:      5

Date: 1991/02/18; Stress:  6; Step:    18; Simulation step:  141
                  MF iterations:        5; SZ iterations:      5

Date: 1991/02/19; Stress:  6; Step:    19; Simulation step:  142
                  MF iterations:        5; SZ iterations:      5

Date: 1991/02/20; Stress:  6; Step:    20; Simulation step:  143
                  MF iterations:        5; SZ iterations:      5

Date: 1991/02/21; Stress:  6; Step:    21; Simulation step:  144
                  MF iterations:        6; SZ iterations:      6

Date: 1991/02/22; Stress:  6; Step:    22; Simulation step:  145
                  MF iterations:        5; SZ iterations:      5

Date: 1991/02/23; Stress:  6; Step:    23; Simulation step:  146
                  MF iterations:        5; SZ iterations:      5

Date: 1991/02/24; Stress:  6; Step:    24; Simulation step:  147
                  MF iterations:        5; SZ iterations:      5

Date: 1991/02/25; Stress:  6; Step:    25; Simulation step:  148
                  MF iterations:        5; SZ iterations:      5

Date: 1991/02/26; Stress:  6; Step:    26; Simulation step:  149
                  MF iterations:        5; SZ iterations:      5

Date: 1991/02/27; Stress:  6; Step:    27; Simulation step:  150
                  MF iterations:        5; SZ iterations:      5

Date: 1991/02/28; Stress:  6; Step:    28; Simulation step:  151
                  MF iterations:        5; SZ iterations:      5

Date: 1991/03/01; Stress:  7; Step:     1; Simulation step:  152
                  MF iterations:        5; SZ iterations:      5

Date: 1991/03/02; Stress:  7; Step:     2; Simulation step:  153
                  MF iterations:        5; SZ iterations:      5

Date: 1991/03/03; Stress:  7; Step:     3; Simulation step:  154
                  MF iterations:        5; SZ iterations:      5

Date: 1991/03/04; Stress:  7; Step:     4; Simulation step:  155
                  MF iterations:        7; SZ iterations:      7

Date: 1991/03/05; Stress:  7; Step:     5; Simulation step:  156
                  MF iterations:        9; SZ iterations:      9

Date: 1991/03/06; Stress:  7; Step:     6; Simulation step:  157
                  MF iterations:        6; SZ iterations:      6

Date: 1991/03/07; Stress:  7; Step:     7; Simulation step:  158
                  MF iterations:        5; SZ iterations:      5

Date: 1991/03/08; Stress:  7; Step:     8; Simulation step:  159
                  MF iterations:        6; SZ iterations:      6

Date: 1991/03/09; Stress:  7; Step:     9; Simulation step:  160
                  MF iterations:        5; SZ iterations:      5

Date: 1991/03/10; Stress:  7; Step:    10; Simulation step:  161
                  MF iterations:        5; SZ iterations:      5

Date: 1991/03/11; Stress:  7; Step:    11; Simulation step:  162
                  MF iterations:        6; SZ iterations:      6

Date: 1991/03/12; Stress:  7; Step:    12; Simulation step:  163
                  MF iterations:        5; SZ iterations:      5

Date: 1991/03/13; Stress:  7; Step:    13; Simulation step:  164
                  MF iterations:        5; SZ iterations:      5

Date: 1991/03/14; Stress:  7; Step:    14; Simulation step:  165
                  MF iterations:        5; SZ iterations:      5

Date: 1991/03/15; Stress:  7; Step:    15; Simulation step:  166
                  MF iterations:        6; SZ iterations:      6

Date: 1991/03/16; Stress:  7; Step:    16; Simulation step:  167
                  MF iterations:        5; SZ iterations:      5

Date: 1991/03/17; Stress:  7; Step:    17; Simulation step:  168
                  MF iterations:        5; SZ iterations:      5

Date: 1991/03/18; Stress:  7; Step:    18; Simulation step:  169
                  MF iterations:        5; SZ iterations:      5

Date: 1991/03/19; Stress:  7; Step:    19; Simulation step:  170
                  MF iterations:        5; SZ iterations:      5

Date: 1991/03/20; Stress:  7; Step:    20; Simulation step:  171
                  MF iterations:        5; SZ iterations:      5

Date: 1991/03/21; Stress:  7; Step:    21; Simulation step:  172
                  MF iterations:        6; SZ iterations:      6

Date: 1991/03/22; Stress:  7; Step:    22; Simulation step:  173
                  MF iterations:        5; SZ iterations:      5

Date: 1991/03/23; Stress:  7; Step:    23; Simulation step:  174
                  MF iterations:        6; SZ iterations:      6

Date: 1991/03/24; Stress:  7; Step:    24; Simulation step:  175
                  MF iterations:        5; SZ iterations:      5

Date: 1991/03/25; Stress:  7; Step:    25; Simulation step:  176
                  MF iterations:        5; SZ iterations:      5

Date: 1991/03/26; Stress:  7; Step:    26; Simulation step:  177
                  MF iterations:        5; SZ iterations:      5

Date: 1991/03/27; Stress:  7; Step:    27; Simulation step:  178
                  MF iterations:        5; SZ iterations:      5

Date: 1991/03/28; Stress:  7; Step:    28; Simulation step:  179
                  MF iterations:        5; SZ iterations:      5

Date: 1991/03/29; Stress:  7; Step:    29; Simulation step:  180
                  MF iterations:        6; SZ iterations:      6

Date: 1991/03/30; Stress:  7; Step:    30; Simulation step:  181
                  MF iterations:        6; SZ iterations:      6

Date: 1991/03/31; Stress:  7; Step:    31; Simulation step:  182
                  MF iterations:        6; SZ iterations:      6


***WARNING***
Non-zero values were specified for precipitation,
streamflow, and ET for streams in MODFLOW input files.
These values are set to zero for GSFLOW simulations

Date: 1991/04/01; Stress:  8; Step:     1; Simulation step:  183
                  MF iterations:        6; SZ iterations:      6

Date: 1991/04/02; Stress:  8; Step:     2; Simulation step:  184
                  MF iterations:        6; SZ iterations:      6

Date: 1991/04/03; Stress:  8; Step:     3; Simulation step:  185
                  MF iterations:        6; SZ iterations:      6

Date: 1991/04/04; Stress:  8; Step:     4; Simulation step:  186
                  MF iterations:        6; SZ iterations:      6

Date: 1991/04/05; Stress:  8; Step:     5; Simulation step:  187
                  MF iterations:        6; SZ iterations:      6

Date: 1991/04/06; Stress:  8; Step:     6; Simulation step:  188
                  MF iterations:        7; SZ iterations:      7

Date: 1991/04/07; Stress:  8; Step:     7; Simulation step:  189
                  MF iterations:        7; SZ iterations:      7

Date: 1991/04/08; Stress:  8; Step:     8; Simulation step:  190
                  MF iterations:        7; SZ iterations:      7

Date: 1991/04/09; Stress:  8; Step:     9; Simulation step:  191
                  MF iterations:        7; SZ iterations:      7

Date: 1991/04/10; Stress:  8; Step:    10; Simulation step:  192
                  MF iterations:        7; SZ iterations:      7

Date: 1991/04/11; Stress:  8; Step:    11; Simulation step:  193
                  MF iterations:        7; SZ iterations:      7

Date: 1991/04/12; Stress:  8; Step:    12; Simulation step:  194
                  MF iterations:        7; SZ iterations:      7

Date: 1991/04/13; Stress:  8; Step:    13; Simulation step:  195
                  MF iterations:        6; SZ iterations:      6

Date: 1991/04/14; Stress:  8; Step:    14; Simulation step:  196
                  MF iterations:        6; SZ iterations:      6

Date: 1991/04/15; Stress:  8; Step:    15; Simulation step:  197
                  MF iterations:        6; SZ iterations:      6

Date: 1991/04/16; Stress:  8; Step:    16; Simulation step:  198
                  MF iterations:        6; SZ iterations:      6

Date: 1991/04/17; Stress:  8; Step:    17; Simulation step:  199
                  MF iterations:        6; SZ iterations:      6

Date: 1991/04/18; Stress:  8; Step:    18; Simulation step:  200
                  MF iterations:        6; SZ iterations:      6

Date: 1991/04/19; Stress:  8; Step:    19; Simulation step:  201
                  MF iterations:        6; SZ iterations:      6

Date: 1991/04/20; Stress:  8; Step:    20; Simulation step:  202
                  MF iterations:        6; SZ iterations:      6

Date: 1991/04/21; Stress:  8; Step:    21; Simulation step:  203
                  MF iterations:        6; SZ iterations:      6

Date: 1991/04/22; Stress:  8; Step:    22; Simulation step:  204
                  MF iterations:        6; SZ iterations:      6

Date: 1991/04/23; Stress:  8; Step:    23; Simulation step:  205
                  MF iterations:        6; SZ iterations:      6

Date: 1991/04/24; Stress:  8; Step:    24; Simulation step:  206
                  MF iterations:        6; SZ iterations:      6

Date: 1991/04/25; Stress:  8; Step:    25; Simulation step:  207
                  MF iterations:        6; SZ iterations:      6

Date: 1991/04/26; Stress:  8; Step:    26; Simulation step:  208
                  MF iterations:        6; SZ iterations:      6

Date: 1991/04/27; Stress:  8; Step:    27; Simulation step:  209
                  MF iterations:        6; SZ iterations:      6

Date: 1991/04/28; Stress:  8; Step:    28; Simulation step:  210
                  MF iterations:        6; SZ iterations:      6

Date: 1991/04/29; Stress:  8; Step:    29; Simulation step:  211
                  MF iterations:        6; SZ iterations:      6

Date: 1991/04/30; Stress:  8; Step:    30; Simulation step:  212
                  MF iterations:        6; SZ iterations:      6


***WARNING***
Non-zero values were specified for precipitation,
streamflow, and ET for streams in MODFLOW input files.
These values are set to zero for GSFLOW simulations

Date: 1991/05/01; Stress:  9; Step:     1; Simulation step:  213
                  MF iterations:        6; SZ iterations:      6

Date: 1991/05/02; Stress:  9; Step:     2; Simulation step:  214
                  MF iterations:        6; SZ iterations:      6

Date: 1991/05/03; Stress:  9; Step:     3; Simulation step:  215
                  MF iterations:        6; SZ iterations:      6

Date: 1991/05/04; Stress:  9; Step:     4; Simulation step:  216
                  MF iterations:        7; SZ iterations:      7

Date: 1991/05/05; Stress:  9; Step:     5; Simulation step:  217
                  MF iterations:        7; SZ iterations:      7

Date: 1991/05/06; Stress:  9; Step:     6; Simulation step:  218
                  MF iterations:       39; SZ iterations:     39

Date: 1991/05/07; Stress:  9; Step:     7; Simulation step:  219
                  MF iterations:        6; SZ iterations:      6

Date: 1991/05/08; Stress:  9; Step:     8; Simulation step:  220
                  MF iterations:        6; SZ iterations:      6

Date: 1991/05/09; Stress:  9; Step:     9; Simulation step:  221
                  MF iterations:        7; SZ iterations:      7

Date: 1991/05/10; Stress:  9; Step:    10; Simulation step:  222
                  MF iterations:        7; SZ iterations:      7

Date: 1991/05/11; Stress:  9; Step:    11; Simulation step:  223
                  MF iterations:        7; SZ iterations:      7

Date: 1991/05/12; Stress:  9; Step:    12; Simulation step:  224
                  MF iterations:        7; SZ iterations:      7

Date: 1991/05/13; Stress:  9; Step:    13; Simulation step:  225
                  MF iterations:        7; SZ iterations:      7

Date: 1991/05/14; Stress:  9; Step:    14; Simulation step:  226
                  MF iterations:        7; SZ iterations:      7

Date: 1991/05/15; Stress:  9; Step:    15; Simulation step:  227
                  MF iterations:        7; SZ iterations:      7

Date: 1991/05/16; Stress:  9; Step:    16; Simulation step:  228
                  MF iterations:        7; SZ iterations:      7

Date: 1991/05/17; Stress:  9; Step:    17; Simulation step:  229
                  MF iterations:        6; SZ iterations:      6

Date: 1991/05/18; Stress:  9; Step:    18; Simulation step:  230
                  MF iterations:        6; SZ iterations:      6

Date: 1991/05/19; Stress:  9; Step:    19; Simulation step:  231
                  MF iterations:        6; SZ iterations:      6

Date: 1991/05/20; Stress:  9; Step:    20; Simulation step:  232
                  MF iterations:        6; SZ iterations:      6

Date: 1991/05/21; Stress:  9; Step:    21; Simulation step:  233
                  MF iterations:        6; SZ iterations:      6

Date: 1991/05/22; Stress:  9; Step:    22; Simulation step:  234
                  MF iterations:        6; SZ iterations:      6

Date: 1991/05/23; Stress:  9; Step:    23; Simulation step:  235
                  MF iterations:        6; SZ iterations:      6

Date: 1991/05/24; Stress:  9; Step:    24; Simulation step:  236
                  MF iterations:        6; SZ iterations:      6

Date: 1991/05/25; Stress:  9; Step:    25; Simulation step:  237
                  MF iterations:        6; SZ iterations:      6

Date: 1991/05/26; Stress:  9; Step:    26; Simulation step:  238
                  MF iterations:        6; SZ iterations:      6

Date: 1991/05/27; Stress:  9; Step:    27; Simulation step:  239
                  MF iterations:        6; SZ iterations:      6

Date: 1991/05/28; Stress:  9; Step:    28; Simulation step:  240
                  MF iterations:        6; SZ iterations:      6

Date: 1991/05/29; Stress:  9; Step:    29; Simulation step:  241
                  MF iterations:        6; SZ iterations:      6

Date: 1991/05/30; Stress:  9; Step:    30; Simulation step:  242
                  MF iterations:        6; SZ iterations:      6

Date: 1991/05/31; Stress:  9; Step:    31; Simulation step:  243
                  MF iterations:        6; SZ iterations:      6


***WARNING***
Non-zero values were specified for precipitation,
streamflow, and ET for streams in MODFLOW input files.
These values are set to zero for GSFLOW simulations

Date: 1991/06/01; Stress: 10; Step:     1; Simulation step:  244
                  MF iterations:        6; SZ iterations:      6

Date: 1991/06/02; Stress: 10; Step:     2; Simulation step:  245
                  MF iterations:        7; SZ iterations:      7

Date: 1991/06/03; Stress: 10; Step:     3; Simulation step:  246
                  MF iterations:        7; SZ iterations:      7

Date: 1991/06/04; Stress: 10; Step:     4; Simulation step:  247
                  MF iterations:        7; SZ iterations:      7

Date: 1991/06/05; Stress: 10; Step:     5; Simulation step:  248
                  MF iterations:        7; SZ iterations:      7

Date: 1991/06/06; Stress: 10; Step:     6; Simulation step:  249
                  MF iterations:        7; SZ iterations:      7

Date: 1991/06/07; Stress: 10; Step:     7; Simulation step:  250
                  MF iterations:        7; SZ iterations:      7

Date: 1991/06/08; Stress: 10; Step:     8; Simulation step:  251
                  MF iterations:        6; SZ iterations:      6

Date: 1991/06/09; Stress: 10; Step:     9; Simulation step:  252
                  MF iterations:        6; SZ iterations:      6

Date: 1991/06/10; Stress: 10; Step:    10; Simulation step:  253
                  MF iterations:        6; SZ iterations:      6

Date: 1991/06/11; Stress: 10; Step:    11; Simulation step:  254
                  MF iterations:        6; SZ iterations:      6

Date: 1991/06/12; Stress: 10; Step:    12; Simulation step:  255
                  MF iterations:        6; SZ iterations:      6

Date: 1991/06/13; Stress: 10; Step:    13; Simulation step:  256
                  MF iterations:        6; SZ iterations:      6

Date: 1991/06/14; Stress: 10; Step:    14; Simulation step:  257
                  MF iterations:        6; SZ iterations:      6

Date: 1991/06/15; Stress: 10; Step:    15; Simulation step:  258
                  MF iterations:        6; SZ iterations:      6

Date: 1991/06/16; Stress: 10; Step:    16; Simulation step:  259
                  MF iterations:        6; SZ iterations:      6

Date: 1991/06/17; Stress: 10; Step:    17; Simulation step:  260
                  MF iterations:        6; SZ iterations:      6

Date: 1991/06/18; Stress: 10; Step:    18; Simulation step:  261
                  MF iterations:        6; SZ iterations:      6

Date: 1991/06/19; Stress: 10; Step:    19; Simulation step:  262
                  MF iterations:        6; SZ iterations:      6

Date: 1991/06/20; Stress: 10; Step:    20; Simulation step:  263
                  MF iterations:        5; SZ iterations:      5

Date: 1991/06/21; Stress: 10; Step:    21; Simulation step:  264
                  MF iterations:        5; SZ iterations:      5

Date: 1991/06/22; Stress: 10; Step:    22; Simulation step:  265
                  MF iterations:        5; SZ iterations:      5

Date: 1991/06/23; Stress: 10; Step:    23; Simulation step:  266
                  MF iterations:        5; SZ iterations:      5

Date: 1991/06/24; Stress: 10; Step:    24; Simulation step:  267
                  MF iterations:        5; SZ iterations:      5

Date: 1991/06/25; Stress: 10; Step:    25; Simulation step:  268
                  MF iterations:        5; SZ iterations:      5

Date: 1991/06/26; Stress: 10; Step:    26; Simulation step:  269
                  MF iterations:        5; SZ iterations:      5

Date: 1991/06/27; Stress: 10; Step:    27; Simulation step:  270
                  MF iterations:        5; SZ iterations:      5

Date: 1991/06/28; Stress: 10; Step:    28; Simulation step:  271
                  MF iterations:        5; SZ iterations:      5

Date: 1991/06/29; Stress: 10; Step:    29; Simulation step:  272
                  MF iterations:        5; SZ iterations:      5

Date: 1991/06/30; Stress: 10; Step:    30; Simulation step:  273
                  MF iterations:        5; SZ iterations:      5


***WARNING***
Non-zero values were specified for precipitation,
streamflow, and ET for streams in MODFLOW input files.
These values are set to zero for GSFLOW simulations

Date: 1991/07/01; Stress: 11; Step:     1; Simulation step:  274
                  MF iterations:        5; SZ iterations:      5

Date: 1991/07/02; Stress: 11; Step:     2; Simulation step:  275
                  MF iterations:        7; SZ iterations:      7

Date: 1991/07/03; Stress: 11; Step:     3; Simulation step:  276
                  MF iterations:        6; SZ iterations:      6

Date: 1991/07/04; Stress: 11; Step:     4; Simulation step:  277
                  MF iterations:        7; SZ iterations:      7

Date: 1991/07/05; Stress: 11; Step:     5; Simulation step:  278
                  MF iterations:        7; SZ iterations:      7

Date: 1991/07/06; Stress: 11; Step:     6; Simulation step:  279
                  MF iterations:        6; SZ iterations:      6

Date: 1991/07/07; Stress: 11; Step:     7; Simulation step:  280
                  MF iterations:        6; SZ iterations:      6

Date: 1991/07/08; Stress: 11; Step:     8; Simulation step:  281
                  MF iterations:        6; SZ iterations:      6

Date: 1991/07/09; Stress: 11; Step:     9; Simulation step:  282
                  MF iterations:        6; SZ iterations:      6

Date: 1991/07/10; Stress: 11; Step:    10; Simulation step:  283
                  MF iterations:        8; SZ iterations:      8

Date: 1991/07/11; Stress: 11; Step:    11; Simulation step:  284
                  MF iterations:        6; SZ iterations:      6

Date: 1991/07/12; Stress: 11; Step:    12; Simulation step:  285
                  MF iterations:        6; SZ iterations:      6

Date: 1991/07/13; Stress: 11; Step:    13; Simulation step:  286
                  MF iterations:        6; SZ iterations:      6

Date: 1991/07/14; Stress: 11; Step:    14; Simulation step:  287
                  MF iterations:        6; SZ iterations:      6

Date: 1991/07/15; Stress: 11; Step:    15; Simulation step:  288
                  MF iterations:        6; SZ iterations:      6

Date: 1991/07/16; Stress: 11; Step:    16; Simulation step:  289
                  MF iterations:        6; SZ iterations:      6

Date: 1991/07/17; Stress: 11; Step:    17; Simulation step:  290
                  MF iterations:        8; SZ iterations:      8

Date: 1991/07/18; Stress: 11; Step:    18; Simulation step:  291
                  MF iterations:        9; SZ iterations:      9

Date: 1991/07/19; Stress: 11; Step:    19; Simulation step:  292
                  MF iterations:        9; SZ iterations:      9

Date: 1991/07/20; Stress: 11; Step:    20; Simulation step:  293
                  MF iterations:        9; SZ iterations:      9

Date: 1991/07/21; Stress: 11; Step:    21; Simulation step:  294
                  MF iterations:        6; SZ iterations:      6

Date: 1991/07/22; Stress: 11; Step:    22; Simulation step:  295
                  MF iterations:        7; SZ iterations:      7

Date: 1991/07/23; Stress: 11; Step:    23; Simulation step:  296
                  MF iterations:        6; SZ iterations:      6

Date: 1991/07/24; Stress: 11; Step:    24; Simulation step:  297
                  MF iterations:        6; SZ iterations:      6

Date: 1991/07/25; Stress: 11; Step:    25; Simulation step:  298
                  MF iterations:        7; SZ iterations:      7

Date: 1991/07/26; Stress: 11; Step:    26; Simulation step:  299
                  MF iterations:        6; SZ iterations:      6

Date: 1991/07/27; Stress: 11; Step:    27; Simulation step:  300
                  MF iterations:        7; SZ iterations:      7

Date: 1991/07/28; Stress: 11; Step:    28; Simulation step:  301
                  MF iterations:        5; SZ iterations:      5

Date: 1991/07/29; Stress: 11; Step:    29; Simulation step:  302
                  MF iterations:        7; SZ iterations:      7

Date: 1991/07/30; Stress: 11; Step:    30; Simulation step:  303
                  MF iterations:        7; SZ iterations:      7

Date: 1991/07/31; Stress: 11; Step:    31; Simulation step:  304
                  MF iterations:        6; SZ iterations:      6


***WARNING***
Non-zero values were specified for precipitation,
streamflow, and ET for streams in MODFLOW input files.
These values are set to zero for GSFLOW simulations

Date: 1991/08/01; Stress: 12; Step:     1; Simulation step:  305
                  MF iterations:        8; SZ iterations:      8

Date: 1991/08/02; Stress: 12; Step:     2; Simulation step:  306
                  MF iterations:        9; SZ iterations:      9

Date: 1991/08/03; Stress: 12; Step:     3; Simulation step:  307
                  MF iterations:        9; SZ iterations:      9

Date: 1991/08/04; Stress: 12; Step:     4; Simulation step:  308
                  MF iterations:        9; SZ iterations:      9

Date: 1991/08/05; Stress: 12; Step:     5; Simulation step:  309
                  MF iterations:        7; SZ iterations:      7

Date: 1991/08/06; Stress: 12; Step:     6; Simulation step:  310
                  MF iterations:        7; SZ iterations:      7

Date: 1991/08/07; Stress: 12; Step:     7; Simulation step:  311
                  MF iterations:        7; SZ iterations:      7

Date: 1991/08/08; Stress: 12; Step:     8; Simulation step:  312
                  MF iterations:        7; SZ iterations:      7

Date: 1991/08/09; Stress: 12; Step:     9; Simulation step:  313
                  MF iterations:        7; SZ iterations:      7

Date: 1991/08/10; Stress: 12; Step:    10; Simulation step:  314
                  MF iterations:        7; SZ iterations:      7

Date: 1991/08/11; Stress: 12; Step:    11; Simulation step:  315
                  MF iterations:        7; SZ iterations:      7

Date: 1991/08/12; Stress: 12; Step:    12; Simulation step:  316
                  MF iterations:        7; SZ iterations:      7

Date: 1991/08/13; Stress: 12; Step:    13; Simulation step:  317
                  MF iterations:        8; SZ iterations:      8

Date: 1991/08/14; Stress: 12; Step:    14; Simulation step:  318
                  MF iterations:        9; SZ iterations:      9

Date: 1991/08/15; Stress: 12; Step:    15; Simulation step:  319
                  MF iterations:        7; SZ iterations:      7

Date: 1991/08/16; Stress: 12; Step:    16; Simulation step:  320
                  MF iterations:        6; SZ iterations:      6

Date: 1991/08/17; Stress: 12; Step:    17; Simulation step:  321
                  MF iterations:        6; SZ iterations:      6

Date: 1991/08/18; Stress: 12; Step:    18; Simulation step:  322
                  MF iterations:        8; SZ iterations:      8

Date: 1991/08/19; Stress: 12; Step:    19; Simulation step:  323
                  MF iterations:        7; SZ iterations:      7

Date: 1991/08/20; Stress: 12; Step:    20; Simulation step:  324
                  MF iterations:        7; SZ iterations:      7

Date: 1991/08/21; Stress: 12; Step:    21; Simulation step:  325
                  MF iterations:        8; SZ iterations:      8

Date: 1991/08/22; Stress: 12; Step:    22; Simulation step:  326
                  MF iterations:        7; SZ iterations:      7

Date: 1991/08/23; Stress: 12; Step:    23; Simulation step:  327
                  MF iterations:        5; SZ iterations:      5

Date: 1991/08/24; Stress: 12; Step:    24; Simulation step:  328
                  MF iterations:        7; SZ iterations:      7

Date: 1991/08/25; Stress: 12; Step:    25; Simulation step:  329
                  MF iterations:        8; SZ iterations:      8

Date: 1991/08/26; Stress: 12; Step:    26; Simulation step:  330
                  MF iterations:        8; SZ iterations:      8

Date: 1991/08/27; Stress: 12; Step:    27; Simulation step:  331
                  MF iterations:       11; SZ iterations:     11

Date: 1991/08/28; Stress: 12; Step:    28; Simulation step:  332
                  MF iterations:        9; SZ iterations:      9

Date: 1991/08/29; Stress: 12; Step:    29; Simulation step:  333
                  MF iterations:        9; SZ iterations:      9

Date: 1991/08/30; Stress: 12; Step:    30; Simulation step:  334
                  MF iterations:        9; SZ iterations:      9

Date: 1991/08/31; Stress: 12; Step:    31; Simulation step:  335
                  MF iterations:        5; SZ iterations:      5

Date: 1991/09/01; Stress: 13; Step:     1; Simulation step:  336
                  MF iterations:        7; SZ iterations:      7

Date: 1991/09/02; Stress: 13; Step:     2; Simulation step:  337
                  MF iterations:        8; SZ iterations:      8

Date: 1991/09/03; Stress: 13; Step:     3; Simulation step:  338
                  MF iterations:        7; SZ iterations:      7

Date: 1991/09/04; Stress: 13; Step:     4; Simulation step:  339
                  MF iterations:        7; SZ iterations:      7

Date: 1991/09/05; Stress: 13; Step:     5; Simulation step:  340
                  MF iterations:        8; SZ iterations:      8

Date: 1991/09/06; Stress: 13; Step:     6; Simulation step:  341
                  MF iterations:        8; SZ iterations:      8

Date: 1991/09/07; Stress: 13; Step:     7; Simulation step:  342
                  MF iterations:        8; SZ iterations:      8

Date: 1991/09/08; Stress: 13; Step:     8; Simulation step:  343
                  MF iterations:        7; SZ iterations:      7

Date: 1991/09/09; Stress: 13; Step:     9; Simulation step:  344
                  MF iterations:        8; SZ iterations:      8

Date: 1991/09/10; Stress: 13; Step:    10; Simulation step:  345
                  MF iterations:        8; SZ iterations:      8

Date: 1991/09/11; Stress: 13; Step:    11; Simulation step:  346
                  MF iterations:        7; SZ iterations:      7

Date: 1991/09/12; Stress: 13; Step:    12; Simulation step:  347
                  MF iterations:        7; SZ iterations:      7

Date: 1991/09/13; Stress: 13; Step:    13; Simulation step:  348
                  MF iterations:        7; SZ iterations:      7

Date: 1991/09/14; Stress: 13; Step:    14; Simulation step:  349
                  MF iterations:        6; SZ iterations:      6

Date: 1991/09/15; Stress: 13; Step:    15; Simulation step:  350
                  MF iterations:        7; SZ iterations:      7

Date: 1991/09/16; Stress: 13; Step:    16; Simulation step:  351
                  MF iterations:        8; SZ iterations:      8

Date: 1991/09/17; Stress: 13; Step:    17; Simulation step:  352
                  MF iterations:        8; SZ iterations:      8

Date: 1991/09/18; Stress: 13; Step:    18; Simulation step:  353
                  MF iterations:        7; SZ iterations:      7

Date: 1991/09/19; Stress: 13; Step:    19; Simulation step:  354
                  MF iterations:        7; SZ iterations:      7

Date: 1991/09/20; Stress: 13; Step:    20; Simulation step:  355
                  MF iterations:        6; SZ iterations:      6

Date: 1991/09/21; Stress: 13; Step:    21; Simulation step:  356
                  MF iterations:        7; SZ iterations:      7

Date: 1991/09/22; Stress: 13; Step:    22; Simulation step:  357
                  MF iterations:        5; SZ iterations:      5

Date: 1991/09/23; Stress: 13; Step:    23; Simulation step:  358
                  MF iterations:        6; SZ iterations:      6

Date: 1991/09/24; Stress: 13; Step:    24; Simulation step:  359
                  MF iterations:        7; SZ iterations:      7

Date: 1991/09/25; Stress: 13; Step:    25; Simulation step:  360
                  MF iterations:        6; SZ iterations:      6

Date: 1991/09/26; Stress: 13; Step:    26; Simulation step:  361
                  MF iterations:        7; SZ iterations:      7

Date: 1991/09/27; Stress: 13; Step:    27; Simulation step:  362
                  MF iterations:        8; SZ iterations:      8

Date: 1991/09/28; Stress: 13; Step:    28; Simulation step:  363
                  MF iterations:        8; SZ iterations:      8

Date: 1991/09/29; Stress: 13; Step:    29; Simulation step:  364
                  MF iterations:        7; SZ iterations:      7

Date: 1991/09/30; Stress: 13; Step:    30; Simulation step:  365
                  MF iterations:        7; SZ iterations:      7

Date: 1991/10/01; Stress: 14; Step:     1; Simulation step:  366
                  MF iterations:        6; SZ iterations:      6

Date: 1991/10/02; Stress: 14; Step:     2; Simulation step:  367
                  MF iterations:        6; SZ iterations:      6

Date: 1991/10/03; Stress: 14; Step:     3; Simulation step:  368
                  MF iterations:        6; SZ iterations:      6

Date: 1991/10/04; Stress: 14; Step:     4; Simulation step:  369
                  MF iterations:        6; SZ iterations:      6

Date: 1991/10/05; Stress: 14; Step:     5; Simulation step:  370
                  MF iterations:        6; SZ iterations:      6

Date: 1991/10/06; Stress: 14; Step:     6; Simulation step:  371
                  MF iterations:        6; SZ iterations:      6

Date: 1991/10/07; Stress: 14; Step:     7; Simulation step:  372
                  MF iterations:        7; SZ iterations:      7

Date: 1991/10/08; Stress: 14; Step:     8; Simulation step:  373
                  MF iterations:        7; SZ iterations:      7

Date: 1991/10/09; Stress: 14; Step:     9; Simulation step:  374
                  MF iterations:        6; SZ iterations:      6

Date: 1991/10/10; Stress: 14; Step:    10; Simulation step:  375
                  MF iterations:        7; SZ iterations:      7

Date: 1991/10/11; Stress: 14; Step:    11; Simulation step:  376
                  MF iterations:        6; SZ iterations:      6

Date: 1991/10/12; Stress: 14; Step:    12; Simulation step:  377
                  MF iterations:        6; SZ iterations:      6

Date: 1991/10/13; Stress: 14; Step:    13; Simulation step:  378
                  MF iterations:        7; SZ iterations:      7

Date: 1991/10/14; Stress: 14; Step:    14; Simulation step:  379
                  MF iterations:        6; SZ iterations:      6

Date: 1991/10/15; Stress: 14; Step:    15; Simulation step:  380
                  MF iterations:        6; SZ iterations:      6

Date: 1991/10/16; Stress: 14; Step:    16; Simulation step:  381
                  MF iterations:        7; SZ iterations:      7

Date: 1991/10/17; Stress: 14; Step:    17; Simulation step:  382
                  MF iterations:        7; SZ iterations:      7

Date: 1991/10/18; Stress: 14; Step:    18; Simulation step:  383
                  MF iterations:        5; SZ iterations:      5

Date: 1991/10/19; Stress: 14; Step:    19; Simulation step:  384
                  MF iterations:        6; SZ iterations:      6

Date: 1991/10/20; Stress: 14; Step:    20; Simulation step:  385
                  MF iterations:        7; SZ iterations:      7

Date: 1991/10/21; Stress: 14; Step:    21; Simulation step:  386
                  MF iterations:        6; SZ iterations:      6

Date: 1991/10/22; Stress: 14; Step:    22; Simulation step:  387
                  MF iterations:        7; SZ iterations:      7

Date: 1991/10/23; Stress: 14; Step:    23; Simulation step:  388
                  MF iterations:        7; SZ iterations:      7

Date: 1991/10/24; Stress: 14; Step:    24; Simulation step:  389
                  MF iterations:        7; SZ iterations:      7

Date: 1991/10/25; Stress: 14; Step:    25; Simulation step:  390
                  MF iterations:        7; SZ iterations:      7

Date: 1991/10/26; Stress: 14; Step:    26; Simulation step:  391
                  MF iterations:        5; SZ iterations:      5

Date: 1991/10/27; Stress: 14; Step:    27; Simulation step:  392
                  MF iterations:        6; SZ iterations:      6

Date: 1991/10/28; Stress: 14; Step:    28; Simulation step:  393
                  MF iterations:        6; SZ iterations:      6

Date: 1991/10/29; Stress: 14; Step:    29; Simulation step:  394
                  MF iterations:        5; SZ iterations:      5

Date: 1991/10/30; Stress: 14; Step:    30; Simulation step:  395
                  MF iterations:        5; SZ iterations:      5

Date: 1991/10/31; Stress: 14; Step:    31; Simulation step:  396
                  MF iterations:        5; SZ iterations:      5


***WARNING***
Non-zero values were specified for precipitation,
streamflow, and ET for streams in MODFLOW input files.
These values are set to zero for GSFLOW simulations

Date: 1991/11/01; Stress: 15; Step:     1; Simulation step:  397
                  MF iterations:        5; SZ iterations:      5

Date: 1991/11/02; Stress: 15; Step:     2; Simulation step:  398
                  MF iterations:        5; SZ iterations:      5

Date: 1991/11/03; Stress: 15; Step:     3; Simulation step:  399
                  MF iterations:        7; SZ iterations:      7

Date: 1991/11/04; Stress: 15; Step:     4; Simulation step:  400
                  MF iterations:        6; SZ iterations:      6

Date: 1991/11/05; Stress: 15; Step:     5; Simulation step:  401
                  MF iterations:        5; SZ iterations:      5

Date: 1991/11/06; Stress: 15; Step:     6; Simulation step:  402
                  MF iterations:        5; SZ iterations:      5

Date: 1991/11/07; Stress: 15; Step:     7; Simulation step:  403
                  MF iterations:        5; SZ iterations:      5

Date: 1991/11/08; Stress: 15; Step:     8; Simulation step:  404
                  MF iterations:        6; SZ iterations:      6

Date: 1991/11/09; Stress: 15; Step:     9; Simulation step:  405
                  MF iterations:        6; SZ iterations:      6

Date: 1991/11/10; Stress: 15; Step:    10; Simulation step:  406
                  MF iterations:        6; SZ iterations:      6

Date: 1991/11/11; Stress: 15; Step:    11; Simulation step:  407
                  MF iterations:        5; SZ iterations:      5

Date: 1991/11/12; Stress: 15; Step:    12; Simulation step:  408
                  MF iterations:        6; SZ iterations:      6

Date: 1991/11/13; Stress: 15; Step:    13; Simulation step:  409
                  MF iterations:        6; SZ iterations:      6

Date: 1991/11/14; Stress: 15; Step:    14; Simulation step:  410
                  MF iterations:        5; SZ iterations:      5

Date: 1991/11/15; Stress: 15; Step:    15; Simulation step:  411
                  MF iterations:        5; SZ iterations:      5

Date: 1991/11/16; Stress: 15; Step:    16; Simulation step:  412
                  MF iterations:        5; SZ iterations:      5

Date: 1991/11/17; Stress: 15; Step:    17; Simulation step:  413
                  MF iterations:        5; SZ iterations:      5

Date: 1991/11/18; Stress: 15; Step:    18; Simulation step:  414
                  MF iterations:        5; SZ iterations:      5

Date: 1991/11/19; Stress: 15; Step:    19; Simulation step:  415
                  MF iterations:        5; SZ iterations:      5

Date: 1991/11/20; Stress: 15; Step:    20; Simulation step:  416
                  MF iterations:        5; SZ iterations:      5

Date: 1991/11/21; Stress: 15; Step:    21; Simulation step:  417
                  MF iterations:        6; SZ iterations:      6

Date: 1991/11/22; Stress: 15; Step:    22; Simulation step:  418
                  MF iterations:        5; SZ iterations:      5

Date: 1991/11/23; Stress: 15; Step:    23; Simulation step:  419
                  MF iterations:        5; SZ iterations:      5

Date: 1991/11/24; Stress: 15; Step:    24; Simulation step:  420
                  MF iterations:        5; SZ iterations:      5

Date: 1991/11/25; Stress: 15; Step:    25; Simulation step:  421
                  MF iterations:        5; SZ iterations:      5

Date: 1991/11/26; Stress: 15; Step:    26; Simulation step:  422
                  MF iterations:        5; SZ iterations:      5

Date: 1991/11/27; Stress: 15; Step:    27; Simulation step:  423
                  MF iterations:        5; SZ iterations:      5

Date: 1991/11/28; Stress: 15; Step:    28; Simulation step:  424
                  MF iterations:        5; SZ iterations:      5

Date: 1991/11/29; Stress: 15; Step:    29; Simulation step:  425
                  MF iterations:        5; SZ iterations:      5

Date: 1991/11/30; Stress: 15; Step:    30; Simulation step:  426
                  MF iterations:        5; SZ iterations:      5


***WARNING***
Non-zero values were specified for precipitation,
streamflow, and ET for streams in MODFLOW input files.
These values are set to zero for GSFLOW simulations

Date: 1991/12/01; Stress: 16; Step:     1; Simulation step:  427
                  MF iterations:        5; SZ iterations:      5

Date: 1991/12/02; Stress: 16; Step:     2; Simulation step:  428
                  MF iterations:        5; SZ iterations:      5

Date: 1991/12/03; Stress: 16; Step:     3; Simulation step:  429
                  MF iterations:        5; SZ iterations:      5

Date: 1991/12/04; Stress: 16; Step:     4; Simulation step:  430
                  MF iterations:        5; SZ iterations:      5

Date: 1991/12/05; Stress: 16; Step:     5; Simulation step:  431
                  MF iterations:        5; SZ iterations:      5

Date: 1991/12/06; Stress: 16; Step:     6; Simulation step:  432
                  MF iterations:        5; SZ iterations:      5

Date: 1991/12/07; Stress: 16; Step:     7; Simulation step:  433
                  MF iterations:        5; SZ iterations:      5

Date: 1991/12/08; Stress: 16; Step:     8; Simulation step:  434
                  MF iterations:        6; SZ iterations:      6

Date: 1991/12/09; Stress: 16; Step:     9; Simulation step:  435
                  MF iterations:        5; SZ iterations:      5

Date: 1991/12/10; Stress: 16; Step:    10; Simulation step:  436
                  MF iterations:        5; SZ iterations:      5

Date: 1991/12/11; Stress: 16; Step:    11; Simulation step:  437
                  MF iterations:        5; SZ iterations:      5

Date: 1991/12/12; Stress: 16; Step:    12; Simulation step:  438
                  MF iterations:        5; SZ iterations:      5

Date: 1991/12/13; Stress: 16; Step:    13; Simulation step:  439
                  MF iterations:        5; SZ iterations:      5

Date: 1991/12/14; Stress: 16; Step:    14; Simulation step:  440
                  MF iterations:        5; SZ iterations:      5

Date: 1991/12/15; Stress: 16; Step:    15; Simulation step:  441
                  MF iterations:        5; SZ iterations:      5

Date: 1991/12/16; Stress: 16; Step:    16; Simulation step:  442
                  MF iterations:        5; SZ iterations:      5

Date: 1991/12/17; Stress: 16; Step:    17; Simulation step:  443
                  MF iterations:        5; SZ iterations:      5

Date: 1991/12/18; Stress: 16; Step:    18; Simulation step:  444
                  MF iterations:        6; SZ iterations:      6

Date: 1991/12/19; Stress: 16; Step:    19; Simulation step:  445
                  MF iterations:        6; SZ iterations:      6

Date: 1991/12/20; Stress: 16; Step:    20; Simulation step:  446
                  MF iterations:        5; SZ iterations:      5

Date: 1991/12/21; Stress: 16; Step:    21; Simulation step:  447
                  MF iterations:        5; SZ iterations:      5

Date: 1991/12/22; Stress: 16; Step:    22; Simulation step:  448
                  MF iterations:        5; SZ iterations:      5

Date: 1991/12/23; Stress: 16; Step:    23; Simulation step:  449
                  MF iterations:        5; SZ iterations:      5

Date: 1991/12/24; Stress: 16; Step:    24; Simulation step:  450
                  MF iterations:        5; SZ iterations:      5

Date: 1991/12/25; Stress: 16; Step:    25; Simulation step:  451
                  MF iterations:        5; SZ iterations:      5

Date: 1991/12/26; Stress: 16; Step:    26; Simulation step:  452
                  MF iterations:        5; SZ iterations:      5

Date: 1991/12/27; Stress: 16; Step:    27; Simulation step:  453
                  MF iterations:        5; SZ iterations:      5

Date: 1991/12/28; Stress: 16; Step:    28; Simulation step:  454
                  MF iterations:        5; SZ iterations:      5

Date: 1991/12/29; Stress: 16; Step:    29; Simulation step:  455
                  MF iterations:        5; SZ iterations:      5

Date: 1991/12/30; Stress: 16; Step:    30; Simulation step:  456
                  MF iterations:        5; SZ iterations:      5

Date: 1991/12/31; Stress: 16; Step:    31; Simulation step:  457
                  MF iterations:        5; SZ iterations:      5


***WARNING***
Non-zero values were specified for precipitation,
streamflow, and ET for streams in MODFLOW input files.
These values are set to zero for GSFLOW simulations

Date: 1992/01/01; Stress: 17; Step:     1; Simulation step:  458
                  MF iterations:        5; SZ iterations:      5

Date: 1992/01/02; Stress: 17; Step:     2; Simulation step:  459
                  MF iterations:        5; SZ iterations:      5

Date: 1992/01/03; Stress: 17; Step:     3; Simulation step:  460
                  MF iterations:        5; SZ iterations:      5

Date: 1992/01/04; Stress: 17; Step:     4; Simulation step:  461
                  MF iterations:        5; SZ iterations:      5

Date: 1992/01/05; Stress: 17; Step:     5; Simulation step:  462
                  MF iterations:        5; SZ iterations:      5

Date: 1992/01/06; Stress: 17; Step:     6; Simulation step:  463
                  MF iterations:        5; SZ iterations:      5

Date: 1992/01/07; Stress: 17; Step:     7; Simulation step:  464
                  MF iterations:        5; SZ iterations:      5

Date: 1992/01/08; Stress: 17; Step:     8; Simulation step:  465
                  MF iterations:        5; SZ iterations:      5

Date: 1992/01/09; Stress: 17; Step:     9; Simulation step:  466
                  MF iterations:        5; SZ iterations:      5

Date: 1992/01/10; Stress: 17; Step:    10; Simulation step:  467
                  MF iterations:        5; SZ iterations:      5

Date: 1992/01/11; Stress: 17; Step:    11; Simulation step:  468
                  MF iterations:        5; SZ iterations:      5

Date: 1992/01/12; Stress: 17; Step:    12; Simulation step:  469
                  MF iterations:        5; SZ iterations:      5

Date: 1992/01/13; Stress: 17; Step:    13; Simulation step:  470
                  MF iterations:        5; SZ iterations:      5

Date: 1992/01/14; Stress: 17; Step:    14; Simulation step:  471
                  MF iterations:        5; SZ iterations:      5

Date: 1992/01/15; Stress: 17; Step:    15; Simulation step:  472
                  MF iterations:        5; SZ iterations:      5

Date: 1992/01/16; Stress: 17; Step:    16; Simulation step:  473
                  MF iterations:        5; SZ iterations:      5

Date: 1992/01/17; Stress: 17; Step:    17; Simulation step:  474
                  MF iterations:        5; SZ iterations:      5

Date: 1992/01/18; Stress: 17; Step:    18; Simulation step:  475
                  MF iterations:        5; SZ iterations:      5

Date: 1992/01/19; Stress: 17; Step:    19; Simulation step:  476
                  MF iterations:        5; SZ iterations:      5

Date: 1992/01/20; Stress: 17; Step:    20; Simulation step:  477
                  MF iterations:        5; SZ iterations:      5

Date: 1992/01/21; Stress: 17; Step:    21; Simulation step:  478
                  MF iterations:        5; SZ iterations:      5

Date: 1992/01/22; Stress: 17; Step:    22; Simulation step:  479
                  MF iterations:        5; SZ iterations:      5

Date: 1992/01/23; Stress: 17; Step:    23; Simulation step:  480
                  MF iterations:        5; SZ iterations:      5

Date: 1992/01/24; Stress: 17; Step:    24; Simulation step:  481
                  MF iterations:        5; SZ iterations:      5

Date: 1992/01/25; Stress: 17; Step:    25; Simulation step:  482
                  MF iterations:        6; SZ iterations:      6

Date: 1992/01/26; Stress: 17; Step:    26; Simulation step:  483
                  MF iterations:        5; SZ iterations:      5

Date: 1992/01/27; Stress: 17; Step:    27; Simulation step:  484
                  MF iterations:        5; SZ iterations:      5

Date: 1992/01/28; Stress: 17; Step:    28; Simulation step:  485
                  MF iterations:        5; SZ iterations:      5

Date: 1992/01/29; Stress: 17; Step:    29; Simulation step:  486
                  MF iterations:        6; SZ iterations:      6

Date: 1992/01/30; Stress: 17; Step:    30; Simulation step:  487
                  MF iterations:        5; SZ iterations:      5

Date: 1992/01/31; Stress: 17; Step:    31; Simulation step:  488
                  MF iterations:        5; SZ iterations:      5


***WARNING***
Non-zero values were specified for precipitation,
streamflow, and ET for streams in MODFLOW input files.
These values are set to zero for GSFLOW simulations

Date: 1992/02/01; Stress: 18; Step:     1; Simulation step:  489
                  MF iterations:        5; SZ iterations:      5

Date: 1992/02/02; Stress: 18; Step:     2; Simulation step:  490
                  MF iterations:        6; SZ iterations:      6

Date: 1992/02/03; Stress: 18; Step:     3; Simulation step:  491
                  MF iterations:        5; SZ iterations:      5

Date: 1992/02/04; Stress: 18; Step:     4; Simulation step:  492
                  MF iterations:        5; SZ iterations:      5

Date: 1992/02/05; Stress: 18; Step:     5; Simulation step:  493
                  MF iterations:        5; SZ iterations:      5

Date: 1992/02/06; Stress: 18; Step:     6; Simulation step:  494
                  MF iterations:        5; SZ iterations:      5

Date: 1992/02/07; Stress: 18; Step:     7; Simulation step:  495
                  MF iterations:        6; SZ iterations:      6

Date: 1992/02/08; Stress: 18; Step:     8; Simulation step:  496
                  MF iterations:        5; SZ iterations:      5

Date: 1992/02/09; Stress: 18; Step:     9; Simulation step:  497
                  MF iterations:        5; SZ iterations:      5

Date: 1992/02/10; Stress: 18; Step:    10; Simulation step:  498
                  MF iterations:        5; SZ iterations:      5

Date: 1992/02/11; Stress: 18; Step:    11; Simulation step:  499
                  MF iterations:        5; SZ iterations:      5

Date: 1992/02/12; Stress: 18; Step:    12; Simulation step:  500
                  MF iterations:        5; SZ iterations:      5

Date: 1992/02/13; Stress: 18; Step:    13; Simulation step:  501
                  MF iterations:        5; SZ iterations:      5

Date: 1992/02/14; Stress: 18; Step:    14; Simulation step:  502
                  MF iterations:        5; SZ iterations:      5

Date: 1992/02/15; Stress: 18; Step:    15; Simulation step:  503
                  MF iterations:        5; SZ iterations:      5

Date: 1992/02/16; Stress: 18; Step:    16; Simulation step:  504
                  MF iterations:        5; SZ iterations:      5

Date: 1992/02/17; Stress: 18; Step:    17; Simulation step:  505
                  MF iterations:        5; SZ iterations:      5

Date: 1992/02/18; Stress: 18; Step:    18; Simulation step:  506
                  MF iterations:        5; SZ iterations:      5

Date: 1992/02/19; Stress: 18; Step:    19; Simulation step:  507
                  MF iterations:        6; SZ iterations:      6

Date: 1992/02/20; Stress: 18; Step:    20; Simulation step:  508
                  MF iterations:        5; SZ iterations:      5

Date: 1992/02/21; Stress: 18; Step:    21; Simulation step:  509
                  MF iterations:        6; SZ iterations:      6

Date: 1992/02/22; Stress: 18; Step:    22; Simulation step:  510
                  MF iterations:        5; SZ iterations:      5

Date: 1992/02/23; Stress: 18; Step:    23; Simulation step:  511
                  MF iterations:        7; SZ iterations:      7

Date: 1992/02/24; Stress: 18; Step:    24; Simulation step:  512
                  MF iterations:        6; SZ iterations:      6

Date: 1992/02/25; Stress: 18; Step:    25; Simulation step:  513
                  MF iterations:        6; SZ iterations:      6

Date: 1992/02/26; Stress: 18; Step:    26; Simulation step:  514
                  MF iterations:        6; SZ iterations:      6

Date: 1992/02/27; Stress: 18; Step:    27; Simulation step:  515
                  MF iterations:        6; SZ iterations:      6

Date: 1992/02/28; Stress: 18; Step:    28; Simulation step:  516
                  MF iterations:        6; SZ iterations:      6

Date: 1992/02/29; Stress: 18; Step:    29; Simulation step:  517
                  MF iterations:        6; SZ iterations:      6


***WARNING***
Non-zero values were specified for precipitation,
streamflow, and ET for streams in MODFLOW input files.
These values are set to zero for GSFLOW simulations

Date: 1992/03/01; Stress: 19; Step:     1; Simulation step:  518
                  MF iterations:        7; SZ iterations:      7

Date: 1992/03/02; Stress: 19; Step:     2; Simulation step:  519
                  MF iterations:        6; SZ iterations:      6

Date: 1992/03/03; Stress: 19; Step:     3; Simulation step:  520
                  MF iterations:        6; SZ iterations:      6

Date: 1992/03/04; Stress: 19; Step:     4; Simulation step:  521
                  MF iterations:        6; SZ iterations:      6

Date: 1992/03/05; Stress: 19; Step:     5; Simulation step:  522
                  MF iterations:        6; SZ iterations:      6

Date: 1992/03/06; Stress: 19; Step:     6; Simulation step:  523
                  MF iterations:        6; SZ iterations:      6

Date: 1992/03/07; Stress: 19; Step:     7; Simulation step:  524
                  MF iterations:        6; SZ iterations:      6

Date: 1992/03/08; Stress: 19; Step:     8; Simulation step:  525
                  MF iterations:        6; SZ iterations:      6

Date: 1992/03/09; Stress: 19; Step:     9; Simulation step:  526
                  MF iterations:        6; SZ iterations:      6

Date: 1992/03/10; Stress: 19; Step:    10; Simulation step:  527
                  MF iterations:        6; SZ iterations:      6

Date: 1992/03/11; Stress: 19; Step:    11; Simulation step:  528
                  MF iterations:        7; SZ iterations:      7

Date: 1992/03/12; Stress: 19; Step:    12; Simulation step:  529
                  MF iterations:        6; SZ iterations:      6

Date: 1992/03/13; Stress: 19; Step:    13; Simulation step:  530
                  MF iterations:        6; SZ iterations:      6

Date: 1992/03/14; Stress: 19; Step:    14; Simulation step:  531
                  MF iterations:        6; SZ iterations:      6

Date: 1992/03/15; Stress: 19; Step:    15; Simulation step:  532
                  MF iterations:        7; SZ iterations:      7

Date: 1992/03/16; Stress: 19; Step:    16; Simulation step:  533
                  MF iterations:        6; SZ iterations:      6

Date: 1992/03/17; Stress: 19; Step:    17; Simulation step:  534
                  MF iterations:        6; SZ iterations:      6

Date: 1992/03/18; Stress: 19; Step:    18; Simulation step:  535
                  MF iterations:        6; SZ iterations:      6

Date: 1992/03/19; Stress: 19; Step:    19; Simulation step:  536
                  MF iterations:        6; SZ iterations:      6

Date: 1992/03/20; Stress: 19; Step:    20; Simulation step:  537
                  MF iterations:        6; SZ iterations:      6

Date: 1992/03/21; Stress: 19; Step:    21; Simulation step:  538
                  MF iterations:       15; SZ iterations:     15

Date: 1992/03/22; Stress: 19; Step:    22; Simulation step:  539
                  MF iterations:       12; SZ iterations:     12

Date: 1992/03/23; Stress: 19; Step:    23; Simulation step:  540
                  MF iterations:        9; SZ iterations:      9

Date: 1992/03/24; Stress: 19; Step:    24; Simulation step:  541
                  MF iterations:        8; SZ iterations:      8

Date: 1992/03/25; Stress: 19; Step:    25; Simulation step:  542
                  MF iterations:        7; SZ iterations:      7

Date: 1992/03/26; Stress: 19; Step:    26; Simulation step:  543
                  MF iterations:        6; SZ iterations:      6

Date: 1992/03/27; Stress: 19; Step:    27; Simulation step:  544
                  MF iterations:        6; SZ iterations:      6

Date: 1992/03/28; Stress: 19; Step:    28; Simulation step:  545
                  MF iterations:        6; SZ iterations:      6

Date: 1992/03/29; Stress: 19; Step:    29; Simulation step:  546
                  MF iterations:        6; SZ iterations:      6

Date: 1992/03/30; Stress: 19; Step:    30; Simulation step:  547
                  MF iterations:        6; SZ iterations:      6

Date: 1992/03/31; Stress: 19; Step:    31; Simulation step:  548
                  MF iterations:        6; SZ iterations:      6


***WARNING***
Non-zero values were specified for precipitation,
streamflow, and ET for streams in MODFLOW input files.
These values are set to zero for GSFLOW simulations

Date: 1992/04/01; Stress: 20; Step:     1; Simulation step:  549
                  MF iterations:        6; SZ iterations:      6

Date: 1992/04/02; Stress: 20; Step:     2; Simulation step:  550
                  MF iterations:        6; SZ iterations:      6

Date: 1992/04/03; Stress: 20; Step:     3; Simulation step:  551
                  MF iterations:        6; SZ iterations:      6

Date: 1992/04/04; Stress: 20; Step:     4; Simulation step:  552
                  MF iterations:        6; SZ iterations:      6

Date: 1992/04/05; Stress: 20; Step:     5; Simulation step:  553
                  MF iterations:        6; SZ iterations:      6

Date: 1992/04/06; Stress: 20; Step:     6; Simulation step:  554
                  MF iterations:        6; SZ iterations:      6

[...]

Date: 2000/06/15; Stress:118; Step:    15; Simulation step: 3546
                  MF iterations:        7; SZ iterations:      7

Date: 2000/06/16; Stress:118; Step:    16; Simulation step: 3547
                  MF iterations:        6; SZ iterations:      6

Date: 2000/06/17; Stress:118; Step:    17; Simulation step: 3548
                  MF iterations:        5; SZ iterations:      5

Date: 2000/06/18; Stress:118; Step:    18; Simulation step: 3549
                  MF iterations:        5; SZ iterations:      5

Date: 2000/06/19; Stress:118; Step:    19; Simulation step: 3550
                  MF iterations:        5; SZ iterations:      5

Date: 2000/06/20; Stress:118; Step:    20; Simulation step: 3551
                  MF iterations:        5; SZ iterations:      5

Date: 2000/06/21; Stress:118; Step:    21; Simulation step: 3552
                  MF iterations:        6; SZ iterations:      6

Date: 2000/06/22; Stress:118; Step:    22; Simulation step: 3553
                  MF iterations:        6; SZ iterations:      6

Date: 2000/06/23; Stress:118; Step:    23; Simulation step: 3554
                  MF iterations:        6; SZ iterations:      6

Date: 2000/06/24; Stress:118; Step:    24; Simulation step: 3555
                  MF iterations:        6; SZ iterations:      6

Date: 2000/06/25; Stress:118; Step:    25; Simulation step: 3556
                  MF iterations:        5; SZ iterations:      5

Date: 2000/06/26; Stress:118; Step:    26; Simulation step: 3557
                  MF iterations:        6; SZ iterations:      6

Date: 2000/06/27; Stress:118; Step:    27; Simulation step: 3558
                  MF iterations:        6; SZ iterations:      6

Date: 2000/06/28; Stress:118; Step:    28; Simulation step: 3559
                  MF iterations:        6; SZ iterations:      6

Date: 2000/06/29; Stress:118; Step:    29; Simulation step: 3560
                  MF iterations:        7; SZ iterations:      7

Date: 2000/06/30; Stress:118; Step:    30; Simulation step: 3561
                  MF iterations:        7; SZ iterations:      7

Date: 2000/07/01; Stress:119; Step:     1; Simulation step: 3562
                  MF iterations:        7; SZ iterations:      7

Date: 2000/07/02; Stress:119; Step:     2; Simulation step: 3563
                  MF iterations:        5; SZ iterations:      5

Date: 2000/07/03; Stress:119; Step:     3; Simulation step: 3564
                  MF iterations:        7; SZ iterations:      7

Date: 2000/07/04; Stress:119; Step:     4; Simulation step: 3565
                  MF iterations:        5; SZ iterations:      5

Date: 2000/07/05; Stress:119; Step:     5; Simulation step: 3566
                  MF iterations:        7; SZ iterations:      7

Date: 2000/07/06; Stress:119; Step:     6; Simulation step: 3567
                  MF iterations:        7; SZ iterations:      7

Date: 2000/07/07; Stress:119; Step:     7; Simulation step: 3568
                  MF iterations:        9; SZ iterations:      9

Date: 2000/07/08; Stress:119; Step:     8; Simulation step: 3569
                  MF iterations:        9; SZ iterations:      9

Date: 2000/07/09; Stress:119; Step:     9; Simulation step: 3570
                  MF iterations:        9; SZ iterations:      9

Date: 2000/07/10; Stress:119; Step:    10; Simulation step: 3571
                  MF iterations:        9; SZ iterations:      9

Date: 2000/07/11; Stress:119; Step:    11; Simulation step: 3572
                  MF iterations:        9; SZ iterations:      9

Date: 2000/07/12; Stress:119; Step:    12; Simulation step: 3573
                  MF iterations:        9; SZ iterations:      9

Date: 2000/07/13; Stress:119; Step:    13; Simulation step: 3574
                  MF iterations:        6; SZ iterations:      6

Date: 2000/07/14; Stress:119; Step:    14; Simulation step: 3575
                  MF iterations:        7; SZ iterations:      7

Date: 2000/07/15; Stress:119; Step:    15; Simulation step: 3576
                  MF iterations:       13; SZ iterations:     13

Date: 2000/07/16; Stress:119; Step:    16; Simulation step: 3577
                  MF iterations:        7; SZ iterations:      7

Date: 2000/07/17; Stress:119; Step:    17; Simulation step: 3578
                  MF iterations:        8; SZ iterations:      8

Date: 2000/07/18; Stress:119; Step:    18; Simulation step: 3579
                  MF iterations:        4; SZ iterations:      4

Date: 2000/07/19; Stress:119; Step:    19; Simulation step: 3580
                  MF iterations:        7; SZ iterations:      7

Date: 2000/07/20; Stress:119; Step:    20; Simulation step: 3581
                  MF iterations:        9; SZ iterations:      9

Date: 2000/07/21; Stress:119; Step:    21; Simulation step: 3582
                  MF iterations:        5; SZ iterations:      5

Date: 2000/07/22; Stress:119; Step:    22; Simulation step: 3583
                  MF iterations:        6; SZ iterations:      6

Date: 2000/07/23; Stress:119; Step:    23; Simulation step: 3584
                  MF iterations:        6; SZ iterations:      6

Date: 2000/07/24; Stress:119; Step:    24; Simulation step: 3585
                  MF iterations:        5; SZ iterations:      5

Date: 2000/07/25; Stress:119; Step:    25; Simulation step: 3586
                  MF iterations:        9; SZ iterations:      9

Date: 2000/07/26; Stress:119; Step:    26; Simulation step: 3587
                  MF iterations:        9; SZ iterations:      9

Date: 2000/07/27; Stress:119; Step:    27; Simulation step: 3588
                  MF iterations:        9; SZ iterations:      9

Date: 2000/07/28; Stress:119; Step:    28; Simulation step: 3589
                  MF iterations:        9; SZ iterations:      9

Date: 2000/07/29; Stress:119; Step:    29; Simulation step: 3590
                  MF iterations:        7; SZ iterations:      7

Date: 2000/07/30; Stress:119; Step:    30; Simulation step: 3591
                  MF iterations:        9; SZ iterations:      9

Date: 2000/07/31; Stress:119; Step:    31; Simulation step: 3592
                  MF iterations:        9; SZ iterations:      9

Date: 2000/08/01; Stress:120; Step:     1; Simulation step: 3593
                  MF iterations:       10; SZ iterations:     10

Date: 2000/08/02; Stress:120; Step:     2; Simulation step: 3594
                  MF iterations:       11; SZ iterations:     11

Date: 2000/08/03; Stress:120; Step:     3; Simulation step: 3595
                  MF iterations:        6; SZ iterations:      6

Date: 2000/08/04; Stress:120; Step:     4; Simulation step: 3596
                  MF iterations:       10; SZ iterations:     10

Date: 2000/08/05; Stress:120; Step:     5; Simulation step: 3597
                  MF iterations:        9; SZ iterations:      9

Date: 2000/08/06; Stress:120; Step:     6; Simulation step: 3598
                  MF iterations:        9; SZ iterations:      9

Date: 2000/08/07; Stress:120; Step:     7; Simulation step: 3599
                  MF iterations:        9; SZ iterations:      9

Date: 2000/08/08; Stress:120; Step:     8; Simulation step: 3600
                  MF iterations:        7; SZ iterations:      7

Date: 2000/08/09; Stress:120; Step:     9; Simulation step: 3601
                  MF iterations:        7; SZ iterations:      7

Date: 2000/08/10; Stress:120; Step:    10; Simulation step: 3602
                  MF iterations:        7; SZ iterations:      7

Date: 2000/08/11; Stress:120; Step:    11; Simulation step: 3603
                  MF iterations:        7; SZ iterations:      7

Date: 2000/08/12; Stress:120; Step:    12; Simulation step: 3604
                  MF iterations:        6; SZ iterations:      6

Date: 2000/08/13; Stress:120; Step:    13; Simulation step: 3605
                  MF iterations:        5; SZ iterations:      5

Date: 2000/08/14; Stress:120; Step:    14; Simulation step: 3606
                  MF iterations:        9; SZ iterations:      9

Date: 2000/08/15; Stress:120; Step:    15; Simulation step: 3607
                  MF iterations:       10; SZ iterations:     10

Date: 2000/08/16; Stress:120; Step:    16; Simulation step: 3608
                  MF iterations:       10; SZ iterations:     10

Date: 2000/08/17; Stress:120; Step:    17; Simulation step: 3609
                  MF iterations:       10; SZ iterations:     10

Date: 2000/08/18; Stress:120; Step:    18; Simulation step: 3610
                  MF iterations:       10; SZ iterations:     10

Date: 2000/08/19; Stress:120; Step:    19; Simulation step: 3611
                  MF iterations:       10; SZ iterations:     10

Date: 2000/08/20; Stress:120; Step:    20; Simulation step: 3612
                  MF iterations:        9; SZ iterations:      9

Date: 2000/08/21; Stress:120; Step:    21; Simulation step: 3613
                  MF iterations:        9; SZ iterations:      9

Date: 2000/08/22; Stress:120; Step:    22; Simulation step: 3614
                  MF iterations:        7; SZ iterations:      7

Date: 2000/08/23; Stress:120; Step:    23; Simulation step: 3615
                  MF iterations:        7; SZ iterations:      7

Date: 2000/08/24; Stress:120; Step:    24; Simulation step: 3616
                  MF iterations:        6; SZ iterations:      6

Date: 2000/08/25; Stress:120; Step:    25; Simulation step: 3617
                  MF iterations:        7; SZ iterations:      7

Date: 2000/08/26; Stress:120; Step:    26; Simulation step: 3618
                  MF iterations:        6; SZ iterations:      6

Date: 2000/08/27; Stress:120; Step:    27; Simulation step: 3619
                  MF iterations:        5; SZ iterations:      5

Date: 2000/08/28; Stress:120; Step:    28; Simulation step: 3620
                  MF iterations:        7; SZ iterations:      7

Date: 2000/08/29; Stress:120; Step:    29; Simulation step: 3621
                  MF iterations:        7; SZ iterations:      7

Date: 2000/08/30; Stress:120; Step:    30; Simulation step: 3622
                  MF iterations:        8; SZ iterations:      8

Date: 2000/08/31; Stress:120; Step:    31; Simulation step: 3623
                  MF iterations:        6; SZ iterations:      6

Date: 2000/09/01; Stress:121; Step:     1; Simulation step: 3624
                  MF iterations:        8; SZ iterations:      8

Date: 2000/09/02; Stress:121; Step:     2; Simulation step: 3625
                  MF iterations:        7; SZ iterations:      7

Date: 2000/09/03; Stress:121; Step:     3; Simulation step: 3626
                  MF iterations:        8; SZ iterations:      8

Date: 2000/09/04; Stress:121; Step:     4; Simulation step: 3627
                  MF iterations:        6; SZ iterations:      6

Date: 2000/09/05; Stress:121; Step:     5; Simulation step: 3628
                  MF iterations:        6; SZ iterations:      6

Date: 2000/09/06; Stress:121; Step:     6; Simulation step: 3629
                  MF iterations:        8; SZ iterations:      8

Date: 2000/09/07; Stress:121; Step:     7; Simulation step: 3630
                  MF iterations:        7; SZ iterations:      7

Date: 2000/09/08; Stress:121; Step:     8; Simulation step: 3631
                  MF iterations:        7; SZ iterations:      7

Date: 2000/09/09; Stress:121; Step:     9; Simulation step: 3632
                  MF iterations:        9; SZ iterations:      9

Date: 2000/09/10; Stress:121; Step:    10; Simulation step: 3633
                  MF iterations:       13; SZ iterations:     13

Date: 2000/09/11; Stress:121; Step:    11; Simulation step: 3634
                  MF iterations:        7; SZ iterations:      7

Date: 2000/09/12; Stress:121; Step:    12; Simulation step: 3635
                  MF iterations:        6; SZ iterations:      6

Date: 2000/09/13; Stress:121; Step:    13; Simulation step: 3636
                  MF iterations:        8; SZ iterations:      8

Date: 2000/09/14; Stress:121; Step:    14; Simulation step: 3637
                  MF iterations:        7; SZ iterations:      7

Date: 2000/09/15; Stress:121; Step:    15; Simulation step: 3638
                  MF iterations:        7; SZ iterations:      7

Date: 2000/09/16; Stress:121; Step:    16; Simulation step: 3639
                  MF iterations:        8; SZ iterations:      8

Date: 2000/09/17; Stress:121; Step:    17; Simulation step: 3640
                  MF iterations:        7; SZ iterations:      7

Date: 2000/09/18; Stress:121; Step:    18; Simulation step: 3641
                  MF iterations:        7; SZ iterations:      7

Date: 2000/09/19; Stress:121; Step:    19; Simulation step: 3642
                  MF iterations:        6; SZ iterations:      6

Date: 2000/09/20; Stress:121; Step:    20; Simulation step: 3643
                  MF iterations:        6; SZ iterations:      6

Date: 2000/09/21; Stress:121; Step:    21; Simulation step: 3644
                  MF iterations:       36; SZ iterations:     36

Date: 2000/09/22; Stress:121; Step:    22; Simulation step: 3645
                  MF iterations:       14; SZ iterations:     14

Date: 2000/09/23; Stress:121; Step:    23; Simulation step: 3646
                  MF iterations:        9; SZ iterations:      9

Date: 2000/09/24; Stress:121; Step:    24; Simulation step: 3647
                  MF iterations:      169; SZ iterations:     50

Date: 2000/09/25; Stress:121; Step:    25; Simulation step: 3648
                  MF iterations:      227; SZ iterations:     50

Date: 2000/09/26; Stress:121; Step:    26; Simulation step: 3649
                  MF iterations:        7; SZ iterations:      7

Date: 2000/09/27; Stress:121; Step:    27; Simulation step: 3650
                  MF iterations:        7; SZ iterations:      7

Date: 2000/09/28; Stress:121; Step:    28; Simulation step: 3651
                  MF iterations:        7; SZ iterations:      7

Date: 2000/09/29; Stress:121; Step:    29; Simulation step: 3652
                  MF iterations:        6; SZ iterations:      6

Date: 2000/09/30; Stress:121; Step:    30; Simulation step: 3653
                  MF iterations:        7; SZ iterations:      7

Date: 2000/10/01; Stress:122; Step:     1; Simulation step: 3654
                  MF iterations:        7; SZ iterations:      7

Date: 2000/10/02; Stress:122; Step:     2; Simulation step: 3655
                  MF iterations:        6; SZ iterations:      6

Date: 2000/10/03; Stress:122; Step:     3; Simulation step: 3656
                  MF iterations:        7; SZ iterations:      7

Date: 2000/10/04; Stress:122; Step:     4; Simulation step: 3657
                  MF iterations:        7; SZ iterations:      7

Date: 2000/10/05; Stress:122; Step:     5; Simulation step: 3658
                  MF iterations:        7; SZ iterations:      7

Date: 2000/10/06; Stress:122; Step:     6; Simulation step: 3659
                  MF iterations:        7; SZ iterations:      7

Date: 2000/10/07; Stress:122; Step:     7; Simulation step: 3660
                  MF iterations:        7; SZ iterations:      7

Date: 2000/10/08; Stress:122; Step:     8; Simulation step: 3661
                  MF iterations:        4; SZ iterations:      4

Date: 2000/10/09; Stress:122; Step:     9; Simulation step: 3662
                  MF iterations:        8; SZ iterations:      8

Date: 2000/10/10; Stress:122; Step:    10; Simulation step: 3663
                  MF iterations:        7; SZ iterations:      7

Date: 2000/10/11; Stress:122; Step:    11; Simulation step: 3664
                  MF iterations:        5; SZ iterations:      5

Date: 2000/10/12; Stress:122; Step:    12; Simulation step: 3665
                  MF iterations:        5; SZ iterations:      5

Date: 2000/10/13; Stress:122; Step:    13; Simulation step: 3666
                  MF iterations:        6; SZ iterations:      6

Date: 2000/10/14; Stress:122; Step:    14; Simulation step: 3667
                  MF iterations:        7; SZ iterations:      7

Date: 2000/10/15; Stress:122; Step:    15; Simulation step: 3668
                  MF iterations:        4; SZ iterations:      4

Date: 2000/10/16; Stress:122; Step:    16; Simulation step: 3669
                  MF iterations:        6; SZ iterations:      6

Date: 2000/10/17; Stress:122; Step:    17; Simulation step: 3670
                  MF iterations:        5; SZ iterations:      5

Date: 2000/10/18; Stress:122; Step:    18; Simulation step: 3671
                  MF iterations:        4; SZ iterations:      4

Date: 2000/10/19; Stress:122; Step:    19; Simulation step: 3672
                  MF iterations:        6; SZ iterations:      6

Date: 2000/10/20; Stress:122; Step:    20; Simulation step: 3673
                  MF iterations:        7; SZ iterations:      7

Date: 2000/10/21; Stress:122; Step:    21; Simulation step: 3674
                  MF iterations:        7; SZ iterations:      7

Date: 2000/10/22; Stress:122; Step:    22; Simulation step: 3675
                  MF iterations:        5; SZ iterations:      5

Date: 2000/10/23; Stress:122; Step:    23; Simulation step: 3676
                  MF iterations:        5; SZ iterations:      5

Date: 2000/10/24; Stress:122; Step:    24; Simulation step: 3677
                  MF iterations:        7; SZ iterations:      7

Date: 2000/10/25; Stress:122; Step:    25; Simulation step: 3678
                  MF iterations:        6; SZ iterations:      6

Date: 2000/10/26; Stress:122; Step:    26; Simulation step: 3679
                  MF iterations:        6; SZ iterations:      6

Date: 2000/10/27; Stress:122; Step:    27; Simulation step: 3680
                  MF iterations:        5; SZ iterations:      5

Date: 2000/10/28; Stress:122; Step:    28; Simulation step: 3681
                  MF iterations:        5; SZ iterations:      5

Date: 2000/10/29; Stress:122; Step:    29; Simulation step: 3682
                  MF iterations:        5; SZ iterations:      5

Date: 2000/10/30; Stress:122; Step:    30; Simulation step: 3683
                  MF iterations:        6; SZ iterations:      6

Date: 2000/10/31; Stress:122; Step:    31; Simulation step: 3684
                  MF iterations:        4; SZ iterations:      4


 Run end date and time (yyyy/mm/dd hh:mm:ss): 2020/03/12 13:53:27
 Elapsed run time:  3 Minutes, 40.912 Seconds

 Number of time steps:   3684;  Number of non-convergence:   0
 MF iterations:         23842;  SZ iterations:           22860
 Average MF iterations:  6.47;  Average SZ iterations:    6.21
 Maximum MF iterations:   256;  Maximum SZ iterations:      50

mxsziter reached:   6

MF iteration distribution:      0    0   85  365  745 1207  828  232  149   32
                                5    4    8    5    1    4    1    1    0    1
                                0    0    1    1    0    0    0    0    0    0
                                0    1    0    0    0    1    0    0    1    0
                                0    0    0    0    0    0    0    0    0    0
                                0    0    0    0    0    0    0    0    0    0
                                0    0    0    0    0    0    0    0    0    0
                                0    0    0    0    0    0    0    0    0    6



SZ computation distribution:    0    0   85  365  745 1207  828  232  149   32
                                5    4    8    5    1    4    1    1    0    1
                                0    0    1    1    0    0    0    0    0    0
                                0    1    0    0    0    1    0    0    1    0
                                0    0    0    0    0    0    0    0    0    6
                                0    0    0    0    0    0    0    0    0    0
                                0    0    0    0    0    0    0    0    0    0
                                0    0    0    0    0    0    0    0    0    0



Normal termination of simulation
Execution elapsed time    0 minutes  0.00 seconds

