1
 SUMMARY VOLUMETRIC BUDGET FOR GSFLOW 
 DATE: 10 07 1990              CUMULATIVE TIME STEP:       7
 MODFLOW STRESS PERIOD      2     CURRENT TIME STEP:       7     ITERATIONS:       9

 -----------------------------------------------------------------------------------

   CUMULATIVE VOLUMES               L**3   RATES FOR THIS TIME STEP           L**3/T
   ------------------                      ------------------------

                                     IN                                         IN
                                     --                                         --
        PRECIPITATION =                            PRECIPITATION =                  
           STREAMFLOW =                               STREAMFLOW =                  
     GW BOUNDARY FLOW =                         GW BOUNDARY FLOW =                  


                                    OUT                                        OUT
                                    ---                                        ---
   EVAPOTRANSPIRATION =         394929.38     EVAPOTRANSPIRATION =          13151.72
           STREAMFLOW =          57612.43             STREAMFLOW =           9070.94
     GW BOUNDARY FLOW =            253.94       GW BOUNDARY FLOW =             36.37

   INFLOWS - OUTFLOWS =        -452795.76     INFLOWS - OUTFLOWS =         -22259.03
             --------                                   --------

 TOTAL STORAGE CHANGE =        -452009.33         STORAGE CHANGE =         -22197.37
       --------------                             --------------
         LAND SURFACE =                             LAND SURFACE =                  
            SOIL ZONE =        -365817.74              SOIL ZONE =          -8150.34
     UNSATURATED ZONE =        -239431.27       UNSATURATED ZONE =         -32085.91
       SATURATED ZONE =         153239.68         SATURATED ZONE =          18038.88

 OVERALL BUDGET ERROR =           -786.43           BUDGET ERROR =            -61.65


  PERCENT DISCREPANCY =             -0.17    PERCENT DISCREPANCY =             -0.28



1
 SUMMARY VOLUMETRIC BUDGET FOR GSFLOW 
 DATE: 10 14 1990              CUMULATIVE TIME STEP:      14
 MODFLOW STRESS PERIOD      2     CURRENT TIME STEP:      14     ITERATIONS:       6

 -----------------------------------------------------------------------------------

   CUMULATIVE VOLUMES               L**3   RATES FOR THIS TIME STEP           L**3/T
   ------------------                      ------------------------

                                     IN                                         IN
                                     --                                         --
        PRECIPITATION =                            PRECIPITATION =                  
           STREAMFLOW =                               STREAMFLOW =                  
     GW BOUNDARY FLOW =                         GW BOUNDARY FLOW =                  


                                    OUT                                        OUT
                                    ---                                        ---
   EVAPOTRANSPIRATION =         715987.36     EVAPOTRANSPIRATION =          59027.05
           STREAMFLOW =         118261.04             STREAMFLOW =           8920.37
     GW BOUNDARY FLOW =            508.49       GW BOUNDARY FLOW =             36.38

   INFLOWS - OUTFLOWS =        -834756.88     INFLOWS - OUTFLOWS =         -67983.81
             --------                                   --------

 TOTAL STORAGE CHANGE =        -833517.20         STORAGE CHANGE =         -67930.48
       --------------                             --------------
         LAND SURFACE =                             LAND SURFACE =                  
            SOIL ZONE =        -553736.22              SOIL ZONE =         -34181.51
     UNSATURATED ZONE =        -530885.67       UNSATURATED ZONE =         -45170.13
       SATURATED ZONE =         251104.68         SATURATED ZONE =          11421.17

 OVERALL BUDGET ERROR =          -1239.67           BUDGET ERROR =            -53.33


  PERCENT DISCREPANCY =             -0.15    PERCENT DISCREPANCY =             -0.08



1
 SUMMARY VOLUMETRIC BUDGET FOR GSFLOW 
 DATE: 10 21 1990              CUMULATIVE TIME STEP:      21
 MODFLOW STRESS PERIOD      2     CURRENT TIME STEP:      21     ITERATIONS:       6

 -----------------------------------------------------------------------------------

   CUMULATIVE VOLUMES               L**3   RATES FOR THIS TIME STEP           L**3/T
   ------------------                      ------------------------

                                     IN                                         IN
                                     --                                         --
        PRECIPITATION =         188432.87          PRECIPITATION =                  
           STREAMFLOW =                               STREAMFLOW =                  
     GW BOUNDARY FLOW =                         GW BOUNDARY FLOW =                  


                                    OUT                                        OUT
                                    ---                                        ---
   EVAPOTRANSPIRATION =         928290.26     EVAPOTRANSPIRATION =          39716.48
           STREAMFLOW =         186157.93             STREAMFLOW =          10047.23
     GW BOUNDARY FLOW =            763.67       GW BOUNDARY FLOW =             36.47

   INFLOWS - OUTFLOWS =        -926779.00     INFLOWS - OUTFLOWS =         -49800.17
             --------                                   --------

 TOTAL STORAGE CHANGE =        -925277.21         STORAGE CHANGE =         -49770.39
       --------------                             --------------
         LAND SURFACE =           4395.42           LAND SURFACE =         -25675.32
            SOIL ZONE =        -504237.65              SOIL ZONE =          -7586.20
     UNSATURATED ZONE =        -758482.21       UNSATURATED ZONE =         -28287.61
       SATURATED ZONE =         333047.23         SATURATED ZONE =          11778.75

 OVERALL BUDGET ERROR =          -1501.79           BUDGET ERROR =            -29.78


  PERCENT DISCREPANCY =             -0.13    PERCENT DISCREPANCY =             -0.06



1
 SUMMARY VOLUMETRIC BUDGET FOR GSFLOW 
 DATE: 10 28 1990              CUMULATIVE TIME STEP:      28
 MODFLOW STRESS PERIOD      2     CURRENT TIME STEP:      28     ITERATIONS:       6

 -----------------------------------------------------------------------------------

   CUMULATIVE VOLUMES               L**3   RATES FOR THIS TIME STEP           L**3/T
   ------------------                      ------------------------

                                     IN                                         IN
                                     --                                         --
        PRECIPITATION =         188432.87          PRECIPITATION =                  
           STREAMFLOW =                               STREAMFLOW =                  
     GW BOUNDARY FLOW =                         GW BOUNDARY FLOW =                  


                                    OUT                                        OUT
                                    ---                                        ---
   EVAPOTRANSPIRATION =        1194098.26     EVAPOTRANSPIRATION =          27729.30
           STREAMFLOW =         253636.85             STREAMFLOW =           9812.32
     GW BOUNDARY FLOW =           1018.40       GW BOUNDARY FLOW =             36.36

   INFLOWS - OUTFLOWS =       -1260320.64     INFLOWS - OUTFLOWS =         -37577.98
             --------                                   --------

 TOTAL STORAGE CHANGE =       -1258602.37         STORAGE CHANGE =         -37551.03
       --------------                             --------------
         LAND SURFACE =                             LAND SURFACE =                  
            SOIL ZONE =        -668142.41              SOIL ZONE =         -18191.18
     UNSATURATED ZONE =        -989450.56       UNSATURATED ZONE =         -28525.78
       SATURATED ZONE =         398990.60         SATURATED ZONE =           9165.94

 OVERALL BUDGET ERROR =          -1718.27           BUDGET ERROR =            -26.95


  PERCENT DISCREPANCY =             -0.12    PERCENT DISCREPANCY =             -0.07



1
 SUMMARY VOLUMETRIC BUDGET FOR GSFLOW 
 DATE: 11 04 1990              CUMULATIVE TIME STEP:       4
 MODFLOW STRESS PERIOD      3     CURRENT TIME STEP:      35     ITERATIONS:       6

 -----------------------------------------------------------------------------------

   CUMULATIVE VOLUMES               L**3   RATES FOR THIS TIME STEP           L**3/T
   ------------------                      ------------------------

                                     IN                                         IN
                                     --                                         --
        PRECIPITATION =         703113.06          PRECIPITATION =                  
           STREAMFLOW =                               STREAMFLOW =                  
     GW BOUNDARY FLOW =                         GW BOUNDARY FLOW =                  


                                    OUT                                        OUT
                                    ---                                        ---
   EVAPOTRANSPIRATION =        1286054.65     EVAPOTRANSPIRATION =          26232.94
           STREAMFLOW =         327196.79             STREAMFLOW =          10778.64
     GW BOUNDARY FLOW =           1272.96       GW BOUNDARY FLOW =             36.35

   INFLOWS - OUTFLOWS =        -911411.34     INFLOWS - OUTFLOWS =         -37047.92
             --------                                   --------

 TOTAL STORAGE CHANGE =        -909542.82         STORAGE CHANGE =         -37030.21
       --------------                             --------------
         LAND SURFACE =          36990.26           LAND SURFACE =         -34939.93
            SOIL ZONE =        -268409.33              SOIL ZONE =           8813.54
     UNSATURATED ZONE =       -1149957.97       UNSATURATED ZONE =         -21506.63
       SATURATED ZONE =         471834.23         SATURATED ZONE =          10602.81

 OVERALL BUDGET ERROR =          -1868.52           BUDGET ERROR =            -17.71


  PERCENT DISCREPANCY =             -0.12    PERCENT DISCREPANCY =             -0.05



1
 SUMMARY VOLUMETRIC BUDGET FOR GSFLOW 
 DATE: 11 11 1990              CUMULATIVE TIME STEP:      11
 MODFLOW STRESS PERIOD      3     CURRENT TIME STEP:      42     ITERATIONS:       6

 -----------------------------------------------------------------------------------

   CUMULATIVE VOLUMES               L**3   RATES FOR THIS TIME STEP           L**3/T
   ------------------                      ------------------------

                                     IN                                         IN
                                     --                                         --
        PRECIPITATION =         703113.06          PRECIPITATION =                  
           STREAMFLOW =                               STREAMFLOW =                  
     GW BOUNDARY FLOW =                         GW BOUNDARY FLOW =                  


                                    OUT                                        OUT
                                    ---                                        ---
   EVAPOTRANSPIRATION =        1423657.30     EVAPOTRANSPIRATION =          27713.89
           STREAMFLOW =         402710.35             STREAMFLOW =          10670.98
     GW BOUNDARY FLOW =           1526.87       GW BOUNDARY FLOW =             36.20

   INFLOWS - OUTFLOWS =       -1124781.46     INFLOWS - OUTFLOWS =         -38421.06
             --------                                   --------

 TOTAL STORAGE CHANGE =       -1122794.37         STORAGE CHANGE =         -38405.08
       --------------                             --------------
         LAND SURFACE =            195.77           LAND SURFACE =           -519.43
            SOIL ZONE =        -364627.13              SOIL ZONE =         -25353.80
     UNSATURATED ZONE =       -1298073.85       UNSATURATED ZONE =         -21093.01
       SATURATED ZONE =         539710.85         SATURATED ZONE =           8561.16

 OVERALL BUDGET ERROR =          -1987.09           BUDGET ERROR =            -15.98


  PERCENT DISCREPANCY =             -0.11    PERCENT DISCREPANCY =             -0.04



1
 SUMMARY VOLUMETRIC BUDGET FOR GSFLOW 
 DATE: 11 18 1990              CUMULATIVE TIME STEP:      18
 MODFLOW STRESS PERIOD      3     CURRENT TIME STEP:      49     ITERATIONS:       6

 -----------------------------------------------------------------------------------

   CUMULATIVE VOLUMES               L**3   RATES FOR THIS TIME STEP           L**3/T
   ------------------                      ------------------------

                                     IN                                         IN
                                     --                                         --
        PRECIPITATION =         747883.35          PRECIPITATION =                  
           STREAMFLOW =                               STREAMFLOW =                  
     GW BOUNDARY FLOW =                         GW BOUNDARY FLOW =                  


                                    OUT                                        OUT
                                    ---                                        ---
   EVAPOTRANSPIRATION =        1535175.41     EVAPOTRANSPIRATION =           6032.30
           STREAMFLOW =         478213.62             STREAMFLOW =          10927.07
     GW BOUNDARY FLOW =           1779.89       GW BOUNDARY FLOW =             36.11

   INFLOWS - OUTFLOWS =       -1267285.57     INFLOWS - OUTFLOWS =         -16995.48
             --------                                   --------

 TOTAL STORAGE CHANGE =       -1265194.75         STORAGE CHANGE =         -16981.32
       --------------                             --------------
         LAND SURFACE =           5912.97           LAND SURFACE =          -3365.44
            SOIL ZONE =        -426034.17              SOIL ZONE =          -1819.61
     UNSATURATED ZONE =       -1442519.84       UNSATURATED ZONE =         -20004.66
       SATURATED ZONE =         597446.29         SATURATED ZONE =           8208.38

 OVERALL BUDGET ERROR =          -2090.82           BUDGET ERROR =            -14.16


  PERCENT DISCREPANCY =             -0.10    PERCENT DISCREPANCY =             -0.08



1
 SUMMARY VOLUMETRIC BUDGET FOR GSFLOW 
 DATE: 11 25 1990              CUMULATIVE TIME STEP:      25
 MODFLOW STRESS PERIOD      3     CURRENT TIME STEP:      56     ITERATIONS:       6

 -----------------------------------------------------------------------------------

   CUMULATIVE VOLUMES               L**3   RATES FOR THIS TIME STEP           L**3/T
   ------------------                      ------------------------

                                     IN                                         IN
                                     --                                         --
        PRECIPITATION =        1009043.38          PRECIPITATION =         186542.88
           STREAMFLOW =                               STREAMFLOW =                  
     GW BOUNDARY FLOW =                         GW BOUNDARY FLOW =                  


                                    OUT                                        OUT
                                    ---                                        ---
   EVAPOTRANSPIRATION =        1599394.48     EVAPOTRANSPIRATION =           6357.62
           STREAMFLOW =         555870.68             STREAMFLOW =          11145.14
     GW BOUNDARY FLOW =           2032.52       GW BOUNDARY FLOW =             36.07

   INFLOWS - OUTFLOWS =       -1148254.29     INFLOWS - OUTFLOWS =         169004.05
             --------                                   --------

 TOTAL STORAGE CHANGE =       -1146077.18         STORAGE CHANGE =         169014.00
       --------------                             --------------
         LAND SURFACE =          37126.34           LAND SURFACE =          20235.48
            SOIL ZONE =        -258011.94              SOIL ZONE =         160277.16
     UNSATURATED ZONE =       -1578598.78       UNSATURATED ZONE =         -19158.08
       SATURATED ZONE =         653407.21         SATURATED ZONE =           7659.43

 OVERALL BUDGET ERROR =          -2177.11           BUDGET ERROR =             -9.95


  PERCENT DISCREPANCY =             -0.10    PERCENT DISCREPANCY =             -0.01



1
 SUMMARY VOLUMETRIC BUDGET FOR GSFLOW 
 DATE: 12 02 1990              CUMULATIVE TIME STEP:       2
 MODFLOW STRESS PERIOD      4     CURRENT TIME STEP:      63     ITERATIONS:       6

 -----------------------------------------------------------------------------------

   CUMULATIVE VOLUMES               L**3   RATES FOR THIS TIME STEP           L**3/T
   ------------------                      ------------------------

                                     IN                                         IN
                                     --                                         --
        PRECIPITATION =        1449284.55          PRECIPITATION =                  
           STREAMFLOW =                               STREAMFLOW =                  
     GW BOUNDARY FLOW =                         GW BOUNDARY FLOW =                  


                                    OUT                                        OUT
                                    ---                                        ---
   EVAPOTRANSPIRATION =        1607138.29     EVAPOTRANSPIRATION =            374.58
           STREAMFLOW =         634640.07             STREAMFLOW =          11409.07
     GW BOUNDARY FLOW =           2284.63       GW BOUNDARY FLOW =             35.98

   INFLOWS - OUTFLOWS =        -794778.44     INFLOWS - OUTFLOWS =         -11819.63
             --------                                   --------

 TOTAL STORAGE CHANGE =        -792555.58         STORAGE CHANGE =         -11813.42
       --------------                             --------------
         LAND SURFACE =         437197.96           LAND SURFACE =           -451.19
            SOIL ZONE =        -224369.65              SOIL ZONE =            226.37
     UNSATURATED ZONE =       -1708979.02       UNSATURATED ZONE =         -18266.52
       SATURATED ZONE =         703595.13         SATURATED ZONE =           6677.91

 OVERALL BUDGET ERROR =          -2222.86           BUDGET ERROR =             -6.21


  PERCENT DISCREPANCY =             -0.10    PERCENT DISCREPANCY =             -0.05



1
 SUMMARY VOLUMETRIC BUDGET FOR GSFLOW 
 DATE: 12 09 1990              CUMULATIVE TIME STEP:       9
 MODFLOW STRESS PERIOD      4     CURRENT TIME STEP:      70     ITERATIONS:       5

 -----------------------------------------------------------------------------------

   CUMULATIVE VOLUMES               L**3   RATES FOR THIS TIME STEP           L**3/T
   ------------------                      ------------------------

                                     IN                                         IN
                                     --                                         --
        PRECIPITATION =        1449284.55          PRECIPITATION =                  
           STREAMFLOW =                               STREAMFLOW =                  
     GW BOUNDARY FLOW =                         GW BOUNDARY FLOW =                  


                                    OUT                                        OUT
                                    ---                                        ---
   EVAPOTRANSPIRATION =        1700719.75     EVAPOTRANSPIRATION =          20934.82
           STREAMFLOW =         715139.75             STREAMFLOW =          11538.74
     GW BOUNDARY FLOW =           2536.13       GW BOUNDARY FLOW =             35.89

   INFLOWS - OUTFLOWS =        -969111.08     INFLOWS - OUTFLOWS =         -32509.45
             --------                                   --------

 TOTAL STORAGE CHANGE =        -966846.02         STORAGE CHANGE =         -32506.99
       --------------                             --------------
         LAND SURFACE =          41512.44           LAND SURFACE =         -36212.48
            SOIL ZONE =          80639.95              SOIL ZONE =          16101.71
     UNSATURATED ZONE =       -1835029.34       UNSATURATED ZONE =         -17993.49
       SATURATED ZONE =         746030.94         SATURATED ZONE =           5597.26

 OVERALL BUDGET ERROR =          -2265.06           BUDGET ERROR =             -2.46


  PERCENT DISCREPANCY =             -0.09    PERCENT DISCREPANCY =             -0.01



1
 SUMMARY VOLUMETRIC BUDGET FOR GSFLOW 
 DATE: 12 16 1990              CUMULATIVE TIME STEP:      16
 MODFLOW STRESS PERIOD      4     CURRENT TIME STEP:      77     ITERATIONS:       5

 -----------------------------------------------------------------------------------

   CUMULATIVE VOLUMES               L**3   RATES FOR THIS TIME STEP           L**3/T
   ------------------                      ------------------------

                                     IN                                         IN
                                     --                                         --
        PRECIPITATION =        1804962.84          PRECIPITATION =                  
           STREAMFLOW =                               STREAMFLOW =                  
     GW BOUNDARY FLOW =                         GW BOUNDARY FLOW =                  


                                    OUT                                        OUT
                                    ---                                        ---
   EVAPOTRANSPIRATION =        1741508.16     EVAPOTRANSPIRATION =                  
           STREAMFLOW =         796459.00             STREAMFLOW =          11664.07
     GW BOUNDARY FLOW =           2786.99       GW BOUNDARY FLOW =             35.80

   INFLOWS - OUTFLOWS =        -735791.30     INFLOWS - OUTFLOWS =         -11699.87
             --------                                   --------

 TOTAL STORAGE CHANGE =        -733510.29         STORAGE CHANGE =         -11696.99
       --------------                             --------------
         LAND SURFACE =         187163.75           LAND SURFACE =                  
            SOIL ZONE =         252098.76              SOIL ZONE =            170.51
     UNSATURATED ZONE =       -1955634.58       UNSATURATED ZONE =         -16810.36
       SATURATED ZONE =         782861.78         SATURATED ZONE =           4942.86

 OVERALL BUDGET ERROR =          -2281.01           BUDGET ERROR =             -2.88


  PERCENT DISCREPANCY =             -0.09    PERCENT DISCREPANCY =             -0.02



1
 SUMMARY VOLUMETRIC BUDGET FOR GSFLOW 
 DATE: 12 23 1990              CUMULATIVE TIME STEP:      23
 MODFLOW STRESS PERIOD      4     CURRENT TIME STEP:      84     ITERATIONS:       5

 -----------------------------------------------------------------------------------

   CUMULATIVE VOLUMES               L**3   RATES FOR THIS TIME STEP           L**3/T
   ------------------                      ------------------------

                                     IN                                         IN
                                     --                                         --
        PRECIPITATION =        2276236.55          PRECIPITATION =                  
           STREAMFLOW =                               STREAMFLOW =                  
     GW BOUNDARY FLOW =                         GW BOUNDARY FLOW =                  


                                    OUT                                        OUT
                                    ---                                        ---
   EVAPOTRANSPIRATION =        1742886.40     EVAPOTRANSPIRATION =                  
           STREAMFLOW =         878542.35             STREAMFLOW =          11766.69
     GW BOUNDARY FLOW =           3037.25       GW BOUNDARY FLOW =             35.72

   INFLOWS - OUTFLOWS =        -348229.45     INFLOWS - OUTFLOWS =         -11802.41
             --------                                   --------

 TOTAL STORAGE CHANGE =        -345921.00         STORAGE CHANGE =         -11797.81
       --------------                             --------------
         LAND SURFACE =         657066.96           LAND SURFACE =                  
            SOIL ZONE =         253346.27              SOIL ZONE =            182.84
     UNSATURATED ZONE =       -2070864.54       UNSATURATED ZONE =         -16197.28
       SATURATED ZONE =         814530.32         SATURATED ZONE =           4216.63

 OVERALL BUDGET ERROR =          -2308.45           BUDGET ERROR =             -4.60


  PERCENT DISCREPANCY =             -0.09    PERCENT DISCREPANCY =             -0.04



1
 SUMMARY VOLUMETRIC BUDGET FOR GSFLOW 
 DATE: 12 30 1990              CUMULATIVE TIME STEP:      30
 MODFLOW STRESS PERIOD      4     CURRENT TIME STEP:      91     ITERATIONS:       5

 -----------------------------------------------------------------------------------

   CUMULATIVE VOLUMES               L**3   RATES FOR THIS TIME STEP           L**3/T
   ------------------                      ------------------------

                                     IN                                         IN
                                     --                                         --
        PRECIPITATION =        2276236.55          PRECIPITATION =                  
           STREAMFLOW =                               STREAMFLOW =                  
     GW BOUNDARY FLOW =              0.03       GW BOUNDARY FLOW =              0.02


                                    OUT                                        OUT
                                    ---                                        ---
   EVAPOTRANSPIRATION =        1743639.26     EVAPOTRANSPIRATION =                  
           STREAMFLOW =         961202.73             STREAMFLOW =          11835.38
     GW BOUNDARY FLOW =           3287.77       GW BOUNDARY FLOW =             35.78

   INFLOWS - OUTFLOWS =        -431893.19     INFLOWS - OUTFLOWS =         -11871.15
             --------                                   --------

 TOTAL STORAGE CHANGE =        -429547.32         STORAGE CHANGE =         -11865.16
       --------------                             --------------
         LAND SURFACE =         656314.47           LAND SURFACE =                  
            SOIL ZONE =         254655.24              SOIL ZONE =            190.71
     UNSATURATED ZONE =       -2181545.08       UNSATURATED ZONE =         -15548.35
       SATURATED ZONE =         841028.06         SATURATED ZONE =           3492.48

 OVERALL BUDGET ERROR =          -2345.87           BUDGET ERROR =             -5.98


  PERCENT DISCREPANCY =             -0.09    PERCENT DISCREPANCY =             -0.05



1
 SUMMARY VOLUMETRIC BUDGET FOR GSFLOW 
 DATE: 01 06 1991              CUMULATIVE TIME STEP:       6
 MODFLOW STRESS PERIOD      5     CURRENT TIME STEP:      98     ITERATIONS:       6

 -----------------------------------------------------------------------------------

   CUMULATIVE VOLUMES               L**3   RATES FOR THIS TIME STEP           L**3/T
   ------------------                      ------------------------

                                     IN                                         IN
                                     --                                         --
        PRECIPITATION =        2276236.55          PRECIPITATION =                  
           STREAMFLOW =                               STREAMFLOW =                  
     GW BOUNDARY FLOW =              0.57       GW BOUNDARY FLOW =              0.12


                                    OUT                                        OUT
                                    ---                                        ---
   EVAPOTRANSPIRATION =        1766981.97     EVAPOTRANSPIRATION =           2588.73
           STREAMFLOW =        1043043.13             STREAMFLOW =          11801.48
     GW BOUNDARY FLOW =           3538.25       GW BOUNDARY FLOW =             35.79

   INFLOWS - OUTFLOWS =        -537326.23     INFLOWS - OUTFLOWS =         -14425.87
             --------                                   --------

 TOTAL STORAGE CHANGE =        -534936.12         STORAGE CHANGE =         -14419.12
       --------------                             --------------
         LAND SURFACE =         548041.04           LAND SURFACE =          -6127.39
            SOIL ZONE =         341053.73              SOIL ZONE =           3745.10
     UNSATURATED ZONE =       -2288112.50       UNSATURATED ZONE =         -14960.17
       SATURATED ZONE =         864081.61         SATURATED ZONE =           2923.33

 OVERALL BUDGET ERROR =          -2390.11           BUDGET ERROR =             -6.75


  PERCENT DISCREPANCY =             -0.08    PERCENT DISCREPANCY =             -0.05



1
 SUMMARY VOLUMETRIC BUDGET FOR GSFLOW 
 DATE: 01 13 1991              CUMULATIVE TIME STEP:      13
 MODFLOW STRESS PERIOD      5     CURRENT TIME STEP:     105     ITERATIONS:       6

 -----------------------------------------------------------------------------------

   CUMULATIVE VOLUMES               L**3   RATES FOR THIS TIME STEP           L**3/T
   ------------------                      ------------------------

                                     IN                                         IN
                                     --                                         --
        PRECIPITATION =        2596386.94          PRECIPITATION =          10327.43
           STREAMFLOW =                               STREAMFLOW =                  
     GW BOUNDARY FLOW =              1.77       GW BOUNDARY FLOW =              0.21


                                    OUT                                        OUT
                                    ---                                        ---
   EVAPOTRANSPIRATION =        1829070.67     EVAPOTRANSPIRATION =          18257.99
           STREAMFLOW =        1125872.21             STREAMFLOW =          11713.89
     GW BOUNDARY FLOW =           3788.70       GW BOUNDARY FLOW =             35.76

   INFLOWS - OUTFLOWS =        -362342.87     INFLOWS - OUTFLOWS =         -19680.00
             --------                                   --------

 TOTAL STORAGE CHANGE =        -359898.74         STORAGE CHANGE =         -19672.48
       --------------                             --------------
         LAND SURFACE =         512042.81           LAND SURFACE =        -134113.86
            SOIL ZONE =         640304.89              SOIL ZONE =         129020.18
     UNSATURATED ZONE =       -2392885.93       UNSATURATED ZONE =         -16013.07
       SATURATED ZONE =         880639.49         SATURATED ZONE =           1434.28

 OVERALL BUDGET ERROR =          -2444.13           BUDGET ERROR =             -7.52


  PERCENT DISCREPANCY =             -0.08    PERCENT DISCREPANCY =             -0.03



1
 SUMMARY VOLUMETRIC BUDGET FOR GSFLOW 
 DATE: 01 20 1991              CUMULATIVE TIME STEP:      20
 MODFLOW STRESS PERIOD      5     CURRENT TIME STEP:     112     ITERATIONS:       6

 -----------------------------------------------------------------------------------

   CUMULATIVE VOLUMES               L**3   RATES FOR THIS TIME STEP           L**3/T
   ------------------                      ------------------------

                                     IN                                         IN
                                     --                                         --
        PRECIPITATION =        2596386.94          PRECIPITATION =                  
           STREAMFLOW =                               STREAMFLOW =                  
     GW BOUNDARY FLOW =              3.58       GW BOUNDARY FLOW =              0.30


                                    OUT                                        OUT
                                    ---                                        ---
   EVAPOTRANSPIRATION =        1899512.35     EVAPOTRANSPIRATION =           1899.32
           STREAMFLOW =        1207958.85             STREAMFLOW =          11917.71
     GW BOUNDARY FLOW =           4039.14       GW BOUNDARY FLOW =             35.78

   INFLOWS - OUTFLOWS =        -515119.81     INFLOWS - OUTFLOWS =         -13852.51
             --------                                   --------

 TOTAL STORAGE CHANGE =        -512630.41         STORAGE CHANGE =         -13845.05
       --------------                             --------------
         LAND SURFACE =         353293.53           LAND SURFACE =           -254.70
            SOIL ZONE =         733956.39              SOIL ZONE =          -1320.42
     UNSATURATED ZONE =       -2493906.87       UNSATURATED ZONE =         -13895.26
       SATURATED ZONE =         894026.54         SATURATED ZONE =           1625.34

 OVERALL BUDGET ERROR =          -2489.41           BUDGET ERROR =             -7.46


  PERCENT DISCREPANCY =             -0.08    PERCENT DISCREPANCY =             -0.05



1
 SUMMARY VOLUMETRIC BUDGET FOR GSFLOW 
 DATE: 01 27 1991              CUMULATIVE TIME STEP:      27
 MODFLOW STRESS PERIOD      5     CURRENT TIME STEP:     119     ITERATIONS:       5

 -----------------------------------------------------------------------------------

   CUMULATIVE VOLUMES               L**3   RATES FOR THIS TIME STEP           L**3/T
   ------------------                      ------------------------

                                     IN                                         IN
                                     --                                         --
        PRECIPITATION =        2596386.94          PRECIPITATION =                  
           STREAMFLOW =                               STREAMFLOW =                  
     GW BOUNDARY FLOW =              5.99       GW BOUNDARY FLOW =              0.38


                                    OUT                                        OUT
                                    ---                                        ---
   EVAPOTRANSPIRATION =        1921926.09     EVAPOTRANSPIRATION =           1246.58
           STREAMFLOW =        1291650.32             STREAMFLOW =          11996.34
     GW BOUNDARY FLOW =           4289.57       GW BOUNDARY FLOW =             35.78

   INFLOWS - OUTFLOWS =        -621473.05     INFLOWS - OUTFLOWS =         -13278.32
             --------                                   --------

 TOTAL STORAGE CHANGE =        -618902.84         STORAGE CHANGE =         -13266.38
       --------------                             --------------
         LAND SURFACE =         325482.20           LAND SURFACE =            -73.52
            SOIL ZONE =         742840.87              SOIL ZONE =           -928.70
     UNSATURATED ZONE =       -2589751.97       UNSATURATED ZONE =         -13272.85
       SATURATED ZONE =         902526.06         SATURATED ZONE =           1008.69

 OVERALL BUDGET ERROR =          -2570.20           BUDGET ERROR =            -11.94


  PERCENT DISCREPANCY =             -0.08    PERCENT DISCREPANCY =             -0.09



1
 SUMMARY VOLUMETRIC BUDGET FOR GSFLOW 
 DATE: 02 03 1991              CUMULATIVE TIME STEP:       3
 MODFLOW STRESS PERIOD      6     CURRENT TIME STEP:     126     ITERATIONS:       6

 -----------------------------------------------------------------------------------

   CUMULATIVE VOLUMES               L**3   RATES FOR THIS TIME STEP           L**3/T
   ------------------                      ------------------------

                                     IN                                         IN
                                     --                                         --
        PRECIPITATION =        3228422.31          PRECIPITATION =          30459.53
           STREAMFLOW =                               STREAMFLOW =                  
     GW BOUNDARY FLOW =              8.98       GW BOUNDARY FLOW =              0.46


                                    OUT                                        OUT
                                    ---                                        ---
   EVAPOTRANSPIRATION =        2027233.14     EVAPOTRANSPIRATION =          20882.16
           STREAMFLOW =        1375615.29             STREAMFLOW =          12044.84
     GW BOUNDARY FLOW =           4539.96       GW BOUNDARY FLOW =             35.77

   INFLOWS - OUTFLOWS =        -178957.11     INFLOWS - OUTFLOWS =          -2502.77
             --------                                   --------

 TOTAL STORAGE CHANGE =        -176308.98         STORAGE CHANGE =          -2494.75
       --------------                             --------------
         LAND SURFACE =         146751.00           LAND SURFACE =         -24802.24
            SOIL ZONE =        1456400.02              SOIL ZONE =          34740.60
     UNSATURATED ZONE =       -2685423.19       UNSATURATED ZONE =         -12768.36
       SATURATED ZONE =         905963.18         SATURATED ZONE =            335.26

 OVERALL BUDGET ERROR =          -2648.13           BUDGET ERROR =             -8.02


  PERCENT DISCREPANCY =             -0.08    PERCENT DISCREPANCY =             -0.02



1
 SUMMARY VOLUMETRIC BUDGET FOR GSFLOW 
 DATE: 02 10 1991              CUMULATIVE TIME STEP:      10
 MODFLOW STRESS PERIOD      6     CURRENT TIME STEP:     133     ITERATIONS:       5

 -----------------------------------------------------------------------------------

   CUMULATIVE VOLUMES               L**3   RATES FOR THIS TIME STEP           L**3/T
   ------------------                      ------------------------

                                     IN                                         IN
                                     --                                         --
        PRECIPITATION =        3510173.01          PRECIPITATION =                  
           STREAMFLOW =                               STREAMFLOW =                  
     GW BOUNDARY FLOW =             12.52       GW BOUNDARY FLOW =              0.54


                                    OUT                                        OUT
                                    ---                                        ---
   EVAPOTRANSPIRATION =        2195350.70     EVAPOTRANSPIRATION =          26021.70
           STREAMFLOW =        1460424.39             STREAMFLOW =          12137.15
     GW BOUNDARY FLOW =           4790.14       GW BOUNDARY FLOW =             35.70

   INFLOWS - OUTFLOWS =        -150379.70     INFLOWS - OUTFLOWS =         -38194.02
             --------                                   --------

 TOTAL STORAGE CHANGE =        -147645.12         STORAGE CHANGE =         -38179.57
       --------------                             --------------
         LAND SURFACE =          63774.57           LAND SURFACE =         -10017.74
            SOIL ZONE =        1646265.14              SOIL ZONE =         -16844.02
     UNSATURATED ZONE =       -2764511.89       UNSATURATED ZONE =         -11161.29
       SATURATED ZONE =         906827.05         SATURATED ZONE =           -156.51

 OVERALL BUDGET ERROR =          -2734.58           BUDGET ERROR =            -14.45


  PERCENT DISCREPANCY =             -0.07    PERCENT DISCREPANCY =             -0.04



1
 SUMMARY VOLUMETRIC BUDGET FOR GSFLOW 
 DATE: 02 17 1991              CUMULATIVE TIME STEP:      17
 MODFLOW STRESS PERIOD      6     CURRENT TIME STEP:     140     ITERATIONS:       5

 -----------------------------------------------------------------------------------

   CUMULATIVE VOLUMES               L**3   RATES FOR THIS TIME STEP           L**3/T
   ------------------                      ------------------------

                                     IN                                         IN
                                     --                                         --
        PRECIPITATION =        3510173.01          PRECIPITATION =                  
           STREAMFLOW =                               STREAMFLOW =                  
     GW BOUNDARY FLOW =             16.56       GW BOUNDARY FLOW =              0.61


                                    OUT                                        OUT
                                    ---                                        ---
   EVAPOTRANSPIRATION =        2439604.79     EVAPOTRANSPIRATION =          23162.46
           STREAMFLOW =        1545539.28             STREAMFLOW =          12174.89
     GW BOUNDARY FLOW =           5039.71       GW BOUNDARY FLOW =             35.61

   INFLOWS - OUTFLOWS =        -479994.21     INFLOWS - OUTFLOWS =         -35372.36
             --------                                   --------

 TOTAL STORAGE CHANGE =        -477152.56         STORAGE CHANGE =         -35356.62
       --------------                             --------------
         LAND SURFACE =          10625.62           LAND SURFACE =          -1107.15
            SOIL ZONE =        1449334.95              SOIL ZONE =         -23064.50
     UNSATURATED ZONE =       -2841099.14       UNSATURATED ZONE =         -10642.90
       SATURATED ZONE =         903986.01         SATURATED ZONE =           -542.08

 OVERALL BUDGET ERROR =          -2841.65           BUDGET ERROR =            -15.73


  PERCENT DISCREPANCY =             -0.07    PERCENT DISCREPANCY =             -0.04



1
 SUMMARY VOLUMETRIC BUDGET FOR GSFLOW 
 DATE: 02 24 1991              CUMULATIVE TIME STEP:      24
 MODFLOW STRESS PERIOD      6     CURRENT TIME STEP:     147     ITERATIONS:       5

 -----------------------------------------------------------------------------------

   CUMULATIVE VOLUMES               L**3   RATES FOR THIS TIME STEP           L**3/T
   ------------------                      ------------------------

                                     IN                                         IN
                                     --                                         --
        PRECIPITATION =        3510173.01          PRECIPITATION =                  
           STREAMFLOW =                               STREAMFLOW =                  
     GW BOUNDARY FLOW =             21.09       GW BOUNDARY FLOW =              0.68


                                    OUT                                        OUT
                                    ---                                        ---
   EVAPOTRANSPIRATION =        2633276.73     EVAPOTRANSPIRATION =          18113.42
           STREAMFLOW =        1629873.52             STREAMFLOW =          11932.78
     GW BOUNDARY FLOW =           5288.61       GW BOUNDARY FLOW =             35.50

   INFLOWS - OUTFLOWS =        -758244.76     INFLOWS - OUTFLOWS =         -30081.02
             --------                                   --------

 TOTAL STORAGE CHANGE =        -755293.62         STORAGE CHANGE =         -30063.71
       --------------                             --------------
         LAND SURFACE =           3951.44           LAND SURFACE =           -125.27
            SOIL ZONE =        1263076.72              SOIL ZONE =         -17367.53
     UNSATURATED ZONE =       -2915523.84       UNSATURATED ZONE =         -10618.73
       SATURATED ZONE =         893202.06         SATURATED ZONE =          -1952.17

 OVERALL BUDGET ERROR =          -2951.14           BUDGET ERROR =            -17.31


  PERCENT DISCREPANCY =             -0.07    PERCENT DISCREPANCY =             -0.06



1
 SUMMARY VOLUMETRIC BUDGET FOR GSFLOW 
 DATE: 03 03 1991              CUMULATIVE TIME STEP:       3
 MODFLOW STRESS PERIOD      7     CURRENT TIME STEP:     154     ITERATIONS:       5

 -----------------------------------------------------------------------------------

   CUMULATIVE VOLUMES               L**3   RATES FOR THIS TIME STEP           L**3/T
   ------------------                      ------------------------

                                     IN                                         IN
                                     --                                         --
        PRECIPITATION =        6220189.63          PRECIPITATION =        1243187.24
           STREAMFLOW =                               STREAMFLOW =                  
     GW BOUNDARY FLOW =             26.08       GW BOUNDARY FLOW =              0.74


                                    OUT                                        OUT
                                    ---                                        ---
   EVAPOTRANSPIRATION =        2762207.97     EVAPOTRANSPIRATION =           8690.52
           STREAMFLOW =        1713068.88             STREAMFLOW =          12167.15
     GW BOUNDARY FLOW =           5536.74       GW BOUNDARY FLOW =             35.44

   INFLOWS - OUTFLOWS =        1739402.12     INFLOWS - OUTFLOWS =        1222294.87
             --------                                   --------

 TOTAL STORAGE CHANGE =        1742479.75         STORAGE CHANGE =        1222312.84
       --------------                             --------------
         LAND SURFACE =        2158411.83           LAND SURFACE =         700230.68
            SOIL ZONE =        1697389.38              SOIL ZONE =         534039.23
     UNSATURATED ZONE =       -2989951.05       UNSATURATED ZONE =         -10034.54
       SATURATED ZONE =         876629.59         SATURATED ZONE =          -1922.54

 OVERALL BUDGET ERROR =          -3077.62           BUDGET ERROR =            -17.97


  PERCENT DISCREPANCY =             -0.05    PERCENT DISCREPANCY =             -0.00



1
 SUMMARY VOLUMETRIC BUDGET FOR GSFLOW 
 DATE: 03 10 1991              CUMULATIVE TIME STEP:      10
 MODFLOW STRESS PERIOD      7     CURRENT TIME STEP:     161     ITERATIONS:       5

 -----------------------------------------------------------------------------------

   CUMULATIVE VOLUMES               L**3   RATES FOR THIS TIME STEP           L**3/T
   ------------------                      ------------------------

                                     IN                                         IN
                                     --                                         --
        PRECIPITATION =        8746030.42          PRECIPITATION =          32888.55
           STREAMFLOW =                               STREAMFLOW =                  
     GW BOUNDARY FLOW =             31.47       GW BOUNDARY FLOW =              0.80


                                    OUT                                        OUT
                                    ---                                        ---
   EVAPOTRANSPIRATION =        2816680.78     EVAPOTRANSPIRATION =           7502.93
           STREAMFLOW =        2636121.81             STREAMFLOW =          13557.68
     GW BOUNDARY FLOW =           5790.58       GW BOUNDARY FLOW =             35.41

   INFLOWS - OUTFLOWS =        3287468.72     INFLOWS - OUTFLOWS =          11793.32
             --------                                   --------

 TOTAL STORAGE CHANGE =        3290631.48         STORAGE CHANGE =          11812.21
       --------------                             --------------
         LAND SURFACE =        2235698.36           LAND SURFACE =          -4542.91
            SOIL ZONE =        3180549.67              SOIL ZONE =          18235.63
     UNSATURATED ZONE =       -2993004.43       UNSATURATED ZONE =           -197.45
       SATURATED ZONE =         867387.88         SATURATED ZONE =          -1683.06

 OVERALL BUDGET ERROR =          -3162.76           BUDGET ERROR =            -18.89


  PERCENT DISCREPANCY =             -0.04    PERCENT DISCREPANCY =             -0.06



1
 SUMMARY VOLUMETRIC BUDGET FOR GSFLOW 
 DATE: 03 17 1991              CUMULATIVE TIME STEP:      17
 MODFLOW STRESS PERIOD      7     CURRENT TIME STEP:     168     ITERATIONS:       5

 -----------------------------------------------------------------------------------

   CUMULATIVE VOLUMES               L**3   RATES FOR THIS TIME STEP           L**3/T
   ------------------                      ------------------------

                                     IN                                         IN
                                     --                                         --
        PRECIPITATION =        9897129.71          PRECIPITATION =         157865.04
           STREAMFLOW =                               STREAMFLOW =                  
     GW BOUNDARY FLOW =             37.31       GW BOUNDARY FLOW =              0.86


                                    OUT                                        OUT
                                    ---                                        ---
   EVAPOTRANSPIRATION =        2839993.98     EVAPOTRANSPIRATION =           6975.65
           STREAMFLOW =        2739514.48             STREAMFLOW =          16644.86
     GW BOUNDARY FLOW =           6038.22       GW BOUNDARY FLOW =             35.36

   INFLOWS - OUTFLOWS =        4311620.35     INFLOWS - OUTFLOWS =         134210.04
             --------                                   --------

 TOTAL STORAGE CHANGE =        4314892.64         STORAGE CHANGE =         134228.53
       --------------                             --------------
         LAND SURFACE =        3338153.20           LAND SURFACE =         123394.04
            SOIL ZONE =        3117078.16              SOIL ZONE =          13944.27
     UNSATURATED ZONE =       -2996864.46       UNSATURATED ZONE =          -1258.19
       SATURATED ZONE =         856525.73         SATURATED ZONE =          -1851.59

 OVERALL BUDGET ERROR =          -3272.30           BUDGET ERROR =            -18.50


  PERCENT DISCREPANCY =             -0.03    PERCENT DISCREPANCY =             -0.01



1
 SUMMARY VOLUMETRIC BUDGET FOR GSFLOW 
 DATE: 03 24 1991              CUMULATIVE TIME STEP:      24
 MODFLOW STRESS PERIOD      7     CURRENT TIME STEP:     175     ITERATIONS:       5

 -----------------------------------------------------------------------------------

   CUMULATIVE VOLUMES               L**3   RATES FOR THIS TIME STEP           L**3/T
   ------------------                      ------------------------

                                     IN                                         IN
                                     --                                         --
        PRECIPITATION =        1.1673D+07          PRECIPITATION =        1230031.83
           STREAMFLOW =                               STREAMFLOW =                  
     GW BOUNDARY FLOW =             43.58       GW BOUNDARY FLOW =              0.92


                                    OUT                                        OUT
                                    ---                                        ---
   EVAPOTRANSPIRATION =        2873412.98     EVAPOTRANSPIRATION =           3938.13
           STREAMFLOW =        2859067.16             STREAMFLOW =          17598.55
     GW BOUNDARY FLOW =           6285.27       GW BOUNDARY FLOW =             35.25

   INFLOWS - OUTFLOWS =        5934389.66     INFLOWS - OUTFLOWS =        1208460.83
             --------                                   --------

 TOTAL STORAGE CHANGE =        5937770.27         STORAGE CHANGE =        1208478.37
       --------------                             --------------
         LAND SURFACE =        5073781.80           LAND SURFACE =        1227482.51
            SOIL ZONE =        3027871.42              SOIL ZONE =         -15314.16
     UNSATURATED ZONE =       -3008006.43       UNSATURATED ZONE =          -1947.11
       SATURATED ZONE =         844123.48         SATURATED ZONE =          -1742.88

 OVERALL BUDGET ERROR =          -3380.61           BUDGET ERROR =            -17.54


  PERCENT DISCREPANCY =             -0.03    PERCENT DISCREPANCY =             -0.00



1
 SUMMARY VOLUMETRIC BUDGET FOR GSFLOW 
 DATE: 03 31 1991              CUMULATIVE TIME STEP:      31
 MODFLOW STRESS PERIOD      7     CURRENT TIME STEP:     182     ITERATIONS:       6

 -----------------------------------------------------------------------------------

   CUMULATIVE VOLUMES               L**3   RATES FOR THIS TIME STEP           L**3/T
   ------------------                      ------------------------

                                     IN                                         IN
                                     --                                         --
        PRECIPITATION =        1.2495D+07          PRECIPITATION =                  
           STREAMFLOW =                               STREAMFLOW =                  
     GW BOUNDARY FLOW =             50.24       GW BOUNDARY FLOW =              0.98


                                    OUT                                        OUT
                                    ---                                        ---
   EVAPOTRANSPIRATION =        2981294.17     EVAPOTRANSPIRATION =          44630.25
           STREAMFLOW =        2999178.51             STREAMFLOW =          26072.20
     GW BOUNDARY FLOW =           6531.85       GW BOUNDARY FLOW =             35.28

   INFLOWS - OUTFLOWS =        6508371.01     INFLOWS - OUTFLOWS =         -70736.76
             --------                                   --------

 TOTAL STORAGE CHANGE =        6511849.32         STORAGE CHANGE =         -70727.32
       --------------                             --------------
         LAND SURFACE =        5647574.86           LAND SURFACE =        -132565.95
            SOIL ZONE =        3054398.62              SOIL ZONE =          65955.32
     UNSATURATED ZONE =       -3021863.70       UNSATURATED ZONE =          -2184.50
       SATURATED ZONE =         831739.53         SATURATED ZONE =          -1932.19

 OVERALL BUDGET ERROR =          -3478.31           BUDGET ERROR =             -9.44


  PERCENT DISCREPANCY =             -0.03    PERCENT DISCREPANCY =             -0.01



1
 SUMMARY VOLUMETRIC BUDGET FOR GSFLOW 
 DATE: 04 07 1991              CUMULATIVE TIME STEP:       7
 MODFLOW STRESS PERIOD      8     CURRENT TIME STEP:     189     ITERATIONS:       7

 -----------------------------------------------------------------------------------

   CUMULATIVE VOLUMES               L**3   RATES FOR THIS TIME STEP           L**3/T
   ------------------                      ------------------------

                                     IN                                         IN
                                     --                                         --
        PRECIPITATION =        1.3018D+07          PRECIPITATION =                  
           STREAMFLOW =                               STREAMFLOW =                  
     GW BOUNDARY FLOW =             57.27       GW BOUNDARY FLOW =              1.02


                                    OUT                                        OUT
                                    ---                                        ---
   EVAPOTRANSPIRATION =        3268528.72     EVAPOTRANSPIRATION =          13551.15
           STREAMFLOW =        3346654.99             STREAMFLOW =          53370.11
     GW BOUNDARY FLOW =           6780.56       GW BOUNDARY FLOW =             35.57

   INFLOWS - OUTFLOWS =        6395829.74     INFLOWS - OUTFLOWS =         -66955.82
             --------                                   --------

 TOTAL STORAGE CHANGE =        6399363.50         STORAGE CHANGE =         -66951.29
       --------------                             --------------
         LAND SURFACE =        4116185.84           LAND SURFACE =         -56924.71
            SOIL ZONE =        4458286.49              SOIL ZONE =         -18921.70
     UNSATURATED ZONE =       -2997083.91       UNSATURATED ZONE =           9696.18
       SATURATED ZONE =         821975.08         SATURATED ZONE =           -801.06

 OVERALL BUDGET ERROR =          -3533.76           BUDGET ERROR =             -4.53


  PERCENT DISCREPANCY =             -0.03    PERCENT DISCREPANCY =             -0.01



1
 SUMMARY VOLUMETRIC BUDGET FOR GSFLOW 
 DATE: 04 14 1991              CUMULATIVE TIME STEP:      14
 MODFLOW STRESS PERIOD      8     CURRENT TIME STEP:     196     ITERATIONS:       6

 -----------------------------------------------------------------------------------

   CUMULATIVE VOLUMES               L**3   RATES FOR THIS TIME STEP           L**3/T
   ------------------                      ------------------------

                                     IN                                         IN
                                     --                                         --
        PRECIPITATION =        1.3018D+07          PRECIPITATION =                  
           STREAMFLOW =                               STREAMFLOW =                  
     GW BOUNDARY FLOW =             64.63       GW BOUNDARY FLOW =              1.07


                                    OUT                                        OUT
                                    ---                                        ---
   EVAPOTRANSPIRATION =        3438457.46     EVAPOTRANSPIRATION =          38955.66
           STREAMFLOW =        3806310.38             STREAMFLOW =          73551.72
     GW BOUNDARY FLOW =           7029.98       GW BOUNDARY FLOW =             35.67

   INFLOWS - OUTFLOWS =        5766003.55     INFLOWS - OUTFLOWS =        -112541.98
             --------                                   --------

 TOTAL STORAGE CHANGE =        5769567.60         STORAGE CHANGE =        -112537.19
       --------------                             --------------
         LAND SURFACE =        3541064.89           LAND SURFACE =        -164763.05
            SOIL ZONE =        4344605.08              SOIL ZONE =          44464.12
     UNSATURATED ZONE =       -2935026.34       UNSATURATED ZONE =           7928.45
       SATURATED ZONE =         818923.97         SATURATED ZONE =           -166.71

 OVERALL BUDGET ERROR =          -3564.06           BUDGET ERROR =             -4.79


  PERCENT DISCREPANCY =             -0.03    PERCENT DISCREPANCY =             -0.00



1
 SUMMARY VOLUMETRIC BUDGET FOR GSFLOW 
 DATE: 04 21 1991              CUMULATIVE TIME STEP:      21
 MODFLOW STRESS PERIOD      8     CURRENT TIME STEP:     203     ITERATIONS:       6

 -----------------------------------------------------------------------------------

   CUMULATIVE VOLUMES               L**3   RATES FOR THIS TIME STEP           L**3/T
   ------------------                      ------------------------

                                     IN                                         IN
                                     --                                         --
        PRECIPITATION =        1.3034D+07          PRECIPITATION =                  
           STREAMFLOW =                               STREAMFLOW =                  
     GW BOUNDARY FLOW =             72.29       GW BOUNDARY FLOW =              1.11


                                    OUT                                        OUT
                                    ---                                        ---
   EVAPOTRANSPIRATION =        3670259.31     EVAPOTRANSPIRATION =          43459.74
           STREAMFLOW =        4322460.49             STREAMFLOW =          81346.62
     GW BOUNDARY FLOW =           7279.06       GW BOUNDARY FLOW =             35.62

   INFLOWS - OUTFLOWS =        5034135.52     INFLOWS - OUTFLOWS =        -124840.86
             --------                                   --------

 TOTAL STORAGE CHANGE =        5037730.67         STORAGE CHANGE =        -124837.15
       --------------                             --------------
         LAND SURFACE =        2540683.31           LAND SURFACE =        -195293.54
            SOIL ZONE =        4556605.83              SOIL ZONE =          61023.26
     UNSATURATED ZONE =       -2877080.44       UNSATURATED ZONE =           9482.14
       SATURATED ZONE =         817521.99         SATURATED ZONE =            -49.02

 OVERALL BUDGET ERROR =          -3595.15           BUDGET ERROR =             -3.70


  PERCENT DISCREPANCY =             -0.03    PERCENT DISCREPANCY =             -0.00



1
 SUMMARY VOLUMETRIC BUDGET FOR GSFLOW 
 DATE: 04 28 1991              CUMULATIVE TIME STEP:      28
 MODFLOW STRESS PERIOD      8     CURRENT TIME STEP:     210     ITERATIONS:       6

 -----------------------------------------------------------------------------------

   CUMULATIVE VOLUMES               L**3   RATES FOR THIS TIME STEP           L**3/T
   ------------------                      ------------------------

                                     IN                                         IN
                                     --                                         --
        PRECIPITATION =        1.3303D+07          PRECIPITATION =                  
           STREAMFLOW =                               STREAMFLOW =                  
     GW BOUNDARY FLOW =             80.25       GW BOUNDARY FLOW =              1.15


                                    OUT                                        OUT
                                    ---                                        ---
   EVAPOTRANSPIRATION =        3917217.37     EVAPOTRANSPIRATION =          55283.23
           STREAMFLOW =        4916435.43             STREAMFLOW =          88549.23
     GW BOUNDARY FLOW =           7528.06       GW BOUNDARY FLOW =             35.55

   INFLOWS - OUTFLOWS =        4462329.90     INFLOWS - OUTFLOWS =        -143866.85
             --------                                   --------

 TOTAL STORAGE CHANGE =        4465943.99         STORAGE CHANGE =        -143864.86
       --------------                             --------------
         LAND SURFACE =        1797938.21           LAND SURFACE =        -152903.02
            SOIL ZONE =        4657063.22              SOIL ZONE =          -1190.46
     UNSATURATED ZONE =       -2808522.84       UNSATURATED ZONE =           9825.03
       SATURATED ZONE =         819465.40         SATURATED ZONE =            403.59

 OVERALL BUDGET ERROR =          -3614.10           BUDGET ERROR =             -1.99


  PERCENT DISCREPANCY =             -0.03    PERCENT DISCREPANCY =             -0.00



1
 SUMMARY VOLUMETRIC BUDGET FOR GSFLOW 
 DATE: 05 05 1991              CUMULATIVE TIME STEP:       5
 MODFLOW STRESS PERIOD      9     CURRENT TIME STEP:     217     ITERATIONS:       7

 -----------------------------------------------------------------------------------

   CUMULATIVE VOLUMES               L**3   RATES FOR THIS TIME STEP           L**3/T
   ------------------                      ------------------------

                                     IN                                         IN
                                     --                                         --
        PRECIPITATION =        1.3510D+07          PRECIPITATION =                  
           STREAMFLOW =                               STREAMFLOW =                  
     GW BOUNDARY FLOW =             88.49       GW BOUNDARY FLOW =              1.20


                                    OUT                                        OUT
                                    ---                                        ---
   EVAPOTRANSPIRATION =        4266286.92     EVAPOTRANSPIRATION =          84817.23
           STREAMFLOW =        5478108.59             STREAMFLOW =          78585.69
     GW BOUNDARY FLOW =           7775.68       GW BOUNDARY FLOW =             35.30

   INFLOWS - OUTFLOWS =        3757625.44     INFLOWS - OUTFLOWS =        -163437.02
             --------                                   --------

 TOTAL STORAGE CHANGE =        3761251.28         STORAGE CHANGE =        -163435.36
       --------------                             --------------
         LAND SURFACE =        1121135.53           LAND SURFACE =        -152852.60
            SOIL ZONE =        4563219.29              SOIL ZONE =         -19774.14
     UNSATURATED ZONE =       -2745871.79       UNSATURATED ZONE =           8650.63
       SATURATED ZONE =         822768.24         SATURATED ZONE =            540.75

 OVERALL BUDGET ERROR =          -3625.84           BUDGET ERROR =             -1.66


  PERCENT DISCREPANCY =             -0.03    PERCENT DISCREPANCY =             -0.00



1
 SUMMARY VOLUMETRIC BUDGET FOR GSFLOW 
 DATE: 05 12 1991              CUMULATIVE TIME STEP:      12
 MODFLOW STRESS PERIOD      9     CURRENT TIME STEP:     224     ITERATIONS:       7

 -----------------------------------------------------------------------------------

   CUMULATIVE VOLUMES               L**3   RATES FOR THIS TIME STEP           L**3/T
   ------------------                      ------------------------

                                     IN                                         IN
                                     --                                         --
        PRECIPITATION =        1.4029D+07          PRECIPITATION =                  
           STREAMFLOW =                               STREAMFLOW =                  
     GW BOUNDARY FLOW =             97.04       GW BOUNDARY FLOW =              1.24


                                    OUT                                        OUT
                                    ---                                        ---
   EVAPOTRANSPIRATION =        4636215.88     EVAPOTRANSPIRATION =          62594.93
           STREAMFLOW =        6018906.69             STREAMFLOW =          70428.77
     GW BOUNDARY FLOW =           8022.01       GW BOUNDARY FLOW =             35.06

   INFLOWS - OUTFLOWS =        3366174.63     INFLOWS - OUTFLOWS =        -133057.52
             --------                                   --------

 TOTAL STORAGE CHANGE =        3369806.12         STORAGE CHANGE =        -133057.07
       --------------                             --------------
         LAND SURFACE =         710447.89           LAND SURFACE =         -96049.30
            SOIL ZONE =        4522089.68              SOIL ZONE =         -44878.65
     UNSATURATED ZONE =       -2693119.01       UNSATURATED ZONE =           6906.32
       SATURATED ZONE =         830387.56         SATURATED ZONE =            964.56

 OVERALL BUDGET ERROR =          -3631.49           BUDGET ERROR =             -0.45


  PERCENT DISCREPANCY =             -0.03    PERCENT DISCREPANCY =             -0.00



1
 SUMMARY VOLUMETRIC BUDGET FOR GSFLOW 
 DATE: 05 19 1991              CUMULATIVE TIME STEP:      19
 MODFLOW STRESS PERIOD      9     CURRENT TIME STEP:     231     ITERATIONS:       6

 -----------------------------------------------------------------------------------

   CUMULATIVE VOLUMES               L**3   RATES FOR THIS TIME STEP           L**3/T
   ------------------                      ------------------------

                                     IN                                         IN
                                     --                                         --
        PRECIPITATION =        1.4365D+07          PRECIPITATION =                  
           STREAMFLOW =                               STREAMFLOW =                  
     GW BOUNDARY FLOW =            105.89       GW BOUNDARY FLOW =              1.28


                                    OUT                                        OUT
                                    ---                                        ---
   EVAPOTRANSPIRATION =        5036324.72     EVAPOTRANSPIRATION =          17977.42
           STREAMFLOW =        6446701.16             STREAMFLOW =          54059.94
     GW BOUNDARY FLOW =           8266.08       GW BOUNDARY FLOW =             34.72

   INFLOWS - OUTFLOWS =        2874192.24     INFLOWS - OUTFLOWS =         -72070.79
             --------                                   --------

 TOTAL STORAGE CHANGE =        2877825.08         STORAGE CHANGE =         -72070.65
       --------------                             --------------
         LAND SURFACE =         410881.33           LAND SURFACE =         -28850.07
            SOIL ZONE =        4284589.36              SOIL ZONE =         -48180.36
     UNSATURATED ZONE =       -2653389.16       UNSATURATED ZONE =           4484.35
       SATURATED ZONE =         835743.55         SATURATED ZONE =            475.43

 OVERALL BUDGET ERROR =          -3632.83           BUDGET ERROR =             -0.14


  PERCENT DISCREPANCY =             -0.03    PERCENT DISCREPANCY =             -0.00



1
 SUMMARY VOLUMETRIC BUDGET FOR GSFLOW 
 DATE: 05 26 1991              CUMULATIVE TIME STEP:      26
 MODFLOW STRESS PERIOD      9     CURRENT TIME STEP:     238     ITERATIONS:       6

 -----------------------------------------------------------------------------------

   CUMULATIVE VOLUMES               L**3   RATES FOR THIS TIME STEP           L**3/T
   ------------------                      ------------------------

                                     IN                                         IN
                                     --                                         --
        PRECIPITATION =        1.4426D+07          PRECIPITATION =                  
           STREAMFLOW =                               STREAMFLOW =                  
     GW BOUNDARY FLOW =            115.04       GW BOUNDARY FLOW =              1.33


                                    OUT                                        OUT
                                    ---                                        ---
   EVAPOTRANSPIRATION =        5683680.10     EVAPOTRANSPIRATION =          71093.69
           STREAMFLOW =        6755776.50             STREAMFLOW =          32126.08
     GW BOUNDARY FLOW =           8507.60       GW BOUNDARY FLOW =             34.27

   INFLOWS - OUTFLOWS =        1978648.44     INFLOWS - OUTFLOWS =        -103252.72
             --------                                   --------

 TOTAL STORAGE CHANGE =        1982283.13         STORAGE CHANGE =        -103251.41
       --------------                             --------------
         LAND SURFACE =         137693.50           LAND SURFACE =         -13707.53
            SOIL ZONE =        3642149.18              SOIL ZONE =         -89485.13
     UNSATURATED ZONE =       -2635579.86       UNSATURATED ZONE =           -109.36
       SATURATED ZONE =         838020.31         SATURATED ZONE =             50.61

 OVERALL BUDGET ERROR =          -3634.69           BUDGET ERROR =             -1.31


  PERCENT DISCREPANCY =             -0.03    PERCENT DISCREPANCY =             -0.00



1
 SUMMARY VOLUMETRIC BUDGET FOR GSFLOW 
 DATE: 06 02 1991              CUMULATIVE TIME STEP:       2
 MODFLOW STRESS PERIOD     10     CURRENT TIME STEP:     245     ITERATIONS:       7

 -----------------------------------------------------------------------------------

   CUMULATIVE VOLUMES               L**3   RATES FOR THIS TIME STEP           L**3/T
   ------------------                      ------------------------

                                     IN                                         IN
                                     --                                         --
        PRECIPITATION =        1.4671D+07          PRECIPITATION =                  
           STREAMFLOW =                               STREAMFLOW =                  
     GW BOUNDARY FLOW =            124.49       GW BOUNDARY FLOW =              1.37


                                    OUT                                        OUT
                                    ---                                        ---
   EVAPOTRANSPIRATION =        6228626.77     EVAPOTRANSPIRATION =         119396.93
           STREAMFLOW =        6976939.15             STREAMFLOW =          27161.71
     GW BOUNDARY FLOW =           8746.85       GW BOUNDARY FLOW =             34.04

   INFLOWS - OUTFLOWS =        1456786.52     INFLOWS - OUTFLOWS =        -146591.31
             --------                                   --------

 TOTAL STORAGE CHANGE =        1460437.63         STORAGE CHANGE =        -146588.80
       --------------                             --------------
         LAND SURFACE =          65228.73           LAND SURFACE =         -11414.61
            SOIL ZONE =        3206627.97              SOIL ZONE =        -132046.57
     UNSATURATED ZONE =       -2648166.51       UNSATURATED ZONE =          -2714.83
       SATURATED ZONE =         836747.43         SATURATED ZONE =           -412.79

 OVERALL BUDGET ERROR =          -3651.11           BUDGET ERROR =             -2.51


  PERCENT DISCREPANCY =             -0.02    PERCENT DISCREPANCY =             -0.00



1
 SUMMARY VOLUMETRIC BUDGET FOR GSFLOW 
 DATE: 06 09 1991              CUMULATIVE TIME STEP:       9
 MODFLOW STRESS PERIOD     10     CURRENT TIME STEP:     252     ITERATIONS:       6

 -----------------------------------------------------------------------------------

   CUMULATIVE VOLUMES               L**3   RATES FOR THIS TIME STEP           L**3/T
   ------------------                      ------------------------

                                     IN                                         IN
                                     --                                         --
        PRECIPITATION =        1.4671D+07          PRECIPITATION =                  
           STREAMFLOW =                               STREAMFLOW =                  
     GW BOUNDARY FLOW =            134.25       GW BOUNDARY FLOW =              1.41


                                    OUT                                        OUT
                                    ---                                        ---
   EVAPOTRANSPIRATION =        6945036.48     EVAPOTRANSPIRATION =         166531.68
           STREAMFLOW =        7136882.53             STREAMFLOW =          19417.72
     GW BOUNDARY FLOW =           8983.94       GW BOUNDARY FLOW =             33.74

   INFLOWS - OUTFLOWS =         580206.10     INFLOWS - OUTFLOWS =        -185981.73
             --------                                   --------

 TOTAL STORAGE CHANGE =         583890.50         STORAGE CHANGE =        -185974.70
       --------------                             --------------
         LAND SURFACE =          17498.47           LAND SURFACE =          -7585.85
            SOIL ZONE =        2417622.14              SOIL ZONE =        -171031.39
     UNSATURATED ZONE =       -2681123.04       UNSATURATED ZONE =          -5872.36
       SATURATED ZONE =         829892.93         SATURATED ZONE =          -1485.09

 OVERALL BUDGET ERROR =          -3684.41           BUDGET ERROR =             -7.03


  PERCENT DISCREPANCY =             -0.03    PERCENT DISCREPANCY =             -0.00



1
 SUMMARY VOLUMETRIC BUDGET FOR GSFLOW 
 DATE: 06 16 1991              CUMULATIVE TIME STEP:      16
 MODFLOW STRESS PERIOD     10     CURRENT TIME STEP:     259     ITERATIONS:       6

 -----------------------------------------------------------------------------------

   CUMULATIVE VOLUMES               L**3   RATES FOR THIS TIME STEP           L**3/T
   ------------------                      ------------------------

                                     IN                                         IN
                                     --                                         --
        PRECIPITATION =        1.4671D+07          PRECIPITATION =                  
           STREAMFLOW =                               STREAMFLOW =                  
     GW BOUNDARY FLOW =            144.31       GW BOUNDARY FLOW =              1.46


                                    OUT                                        OUT
                                    ---                                        ---
   EVAPOTRANSPIRATION =        7902540.85     EVAPOTRANSPIRATION =         107699.83
           STREAMFLOW =        7257905.13             STREAMFLOW =          16692.60
     GW BOUNDARY FLOW =           9219.19       GW BOUNDARY FLOW =             33.53

   INFLOWS - OUTFLOWS =        -498546.06     INFLOWS - OUTFLOWS =        -124424.51
             --------                                   --------

 TOTAL STORAGE CHANGE =        -494800.26         STORAGE CHANGE =        -124415.27
       --------------                             --------------
         LAND SURFACE =            705.51           LAND SURFACE =           -399.79
            SOIL ZONE =        1448016.25              SOIL ZONE =        -106703.41
     UNSATURATED ZONE =       -2757905.55       UNSATURATED ZONE =         -14359.92
       SATURATED ZONE =         814383.53         SATURATED ZONE =          -2952.15

 OVERALL BUDGET ERROR =          -3745.80           BUDGET ERROR =             -9.24


  PERCENT DISCREPANCY =             -0.02    PERCENT DISCREPANCY =             -0.01



1
 SUMMARY VOLUMETRIC BUDGET FOR GSFLOW 
 DATE: 06 23 1991              CUMULATIVE TIME STEP:      23
 MODFLOW STRESS PERIOD     10     CURRENT TIME STEP:     266     ITERATIONS:       5

 -----------------------------------------------------------------------------------

   CUMULATIVE VOLUMES               L**3   RATES FOR THIS TIME STEP           L**3/T
   ------------------                      ------------------------

                                     IN                                         IN
                                     --                                         --
        PRECIPITATION =        1.4671D+07          PRECIPITATION =                  
           STREAMFLOW =                               STREAMFLOW =                  
     GW BOUNDARY FLOW =            154.61       GW BOUNDARY FLOW =              1.46


                                    OUT                                        OUT
                                    ---                                        ---
   EVAPOTRANSPIRATION =        8374304.39     EVAPOTRANSPIRATION =          33679.11
           STREAMFLOW =        7343486.65             STREAMFLOW =          16440.85
     GW BOUNDARY FLOW =           9452.52       GW BOUNDARY FLOW =             33.38

   INFLOWS - OUTFLOWS =       -1056114.14     INFLOWS - OUTFLOWS =         -50151.88
             --------                                   --------

 TOTAL STORAGE CHANGE =       -1052311.53         STORAGE CHANGE =         -50134.21
       --------------                             --------------
         LAND SURFACE =             27.33           LAND SURFACE =             -3.89
            SOIL ZONE =        1017721.94              SOIL ZONE =         -34518.40
     UNSATURATED ZONE =       -2854459.41       UNSATURATED ZONE =         -11624.73
       SATURATED ZONE =         784398.62         SATURATED ZONE =          -3987.19

 OVERALL BUDGET ERROR =          -3802.62           BUDGET ERROR =            -17.66


  PERCENT DISCREPANCY =             -0.02    PERCENT DISCREPANCY =             -0.04



1
 SUMMARY VOLUMETRIC BUDGET FOR GSFLOW 
 DATE: 06 30 1991              CUMULATIVE TIME STEP:      30
 MODFLOW STRESS PERIOD     10     CURRENT TIME STEP:     273     ITERATIONS:       5

 -----------------------------------------------------------------------------------

   CUMULATIVE VOLUMES               L**3   RATES FOR THIS TIME STEP           L**3/T
   ------------------                      ------------------------

                                     IN                                         IN
[...]
                                    ---                                        ---
   EVAPOTRANSPIRATION =        1.4264D+08     EVAPOTRANSPIRATION =          15496.96
           STREAMFLOW =        1.2291D+08             STREAMFLOW =           2866.99
     GW BOUNDARY FLOW =          95495.56       GW BOUNDARY FLOW =             21.76

   INFLOWS - OUTFLOWS =       -2.5633D+07     INFLOWS - OUTFLOWS =         -18379.53
             --------                                   --------

 TOTAL STORAGE CHANGE =       -2.5616D+07         STORAGE CHANGE =         -18377.88
       --------------                             --------------
         LAND SURFACE =                             LAND SURFACE =                  
            SOIL ZONE =       -1970252.43              SOIL ZONE =          -4408.08
     UNSATURATED ZONE =         358422.10       UNSATURATED ZONE =          -1732.12
       SATURATED ZONE =       -2.4005D+07         SATURATED ZONE =         -12237.68

 OVERALL BUDGET ERROR =         -16472.46           BUDGET ERROR =             -1.65


  PERCENT DISCREPANCY =             -0.01    PERCENT DISCREPANCY =             -0.01



1
 SUMMARY VOLUMETRIC BUDGET FOR GSFLOW 
 DATE: 09 03 2000              CUMULATIVE TIME STEP:       3
 MODFLOW STRESS PERIOD    121     CURRENT TIME STEP:    3626     ITERATIONS:       8

 -----------------------------------------------------------------------------------

   CUMULATIVE VOLUMES               L**3   RATES FOR THIS TIME STEP           L**3/T
   ------------------                      ------------------------

                                     IN                                         IN
                                     --                                         --
        PRECIPITATION =        2.4013D+08          PRECIPITATION =                  
           STREAMFLOW =                               STREAMFLOW =                  
     GW BOUNDARY FLOW =          14958.77       GW BOUNDARY FLOW =              6.19


                                    OUT                                        OUT
                                    ---                                        ---
   EVAPOTRANSPIRATION =        1.4272D+08     EVAPOTRANSPIRATION =          28557.93
           STREAMFLOW =        1.2294D+08             STREAMFLOW =           6666.87
     GW BOUNDARY FLOW =          95649.26       GW BOUNDARY FLOW =             22.20

   INFLOWS - OUTFLOWS =       -2.5618D+07     INFLOWS - OUTFLOWS =         -35240.82
             --------                                   --------

 TOTAL STORAGE CHANGE =       -2.5602D+07         STORAGE CHANGE =         -35241.43
       --------------                             --------------
         LAND SURFACE =           8198.00           LAND SURFACE =         -28500.39
            SOIL ZONE =       -1891177.05              SOIL ZONE =             -1.43
     UNSATURATED ZONE =         346493.25       UNSATURATED ZONE =          -1621.55
       SATURATED ZONE =       -2.4065D+07         SATURATED ZONE =          -5118.06

 OVERALL BUDGET ERROR =         -16473.96           BUDGET ERROR =              0.61


  PERCENT DISCREPANCY =             -0.01    PERCENT DISCREPANCY =              0.00



1
 SUMMARY VOLUMETRIC BUDGET FOR GSFLOW 
 DATE: 09 10 2000              CUMULATIVE TIME STEP:      10
 MODFLOW STRESS PERIOD    121     CURRENT TIME STEP:    3633     ITERATIONS:      13

 -----------------------------------------------------------------------------------

   CUMULATIVE VOLUMES               L**3   RATES FOR THIS TIME STEP           L**3/T
   ------------------                      ------------------------

                                     IN                                         IN
                                     --                                         --
        PRECIPITATION =        2.4013D+08          PRECIPITATION =                  
           STREAMFLOW =                               STREAMFLOW =                  
     GW BOUNDARY FLOW =          15002.11       GW BOUNDARY FLOW =              6.19


                                    OUT                                        OUT
                                    ---                                        ---
   EVAPOTRANSPIRATION =        1.4281D+08     EVAPOTRANSPIRATION =          10765.69
           STREAMFLOW =        1.2298D+08             STREAMFLOW =           4499.17
     GW BOUNDARY FLOW =          95803.29       GW BOUNDARY FLOW =             21.98

   INFLOWS - OUTFLOWS =       -2.5736D+07     INFLOWS - OUTFLOWS =         -15280.64
             --------                                   --------

 TOTAL STORAGE CHANGE =       -2.5719D+07         STORAGE CHANGE =         -15279.92
       --------------                             --------------
         LAND SURFACE =                             LAND SURFACE =                  
            SOIL ZONE =       -1926999.17              SOIL ZONE =          -4551.26
     UNSATURATED ZONE =         334619.52       UNSATURATED ZONE =          -1714.14
       SATURATED ZONE =       -2.4127D+07         SATURATED ZONE =          -9014.53

 OVERALL BUDGET ERROR =         -16480.78           BUDGET ERROR =             -0.72


  PERCENT DISCREPANCY =             -0.01    PERCENT DISCREPANCY =             -0.00



1
 SUMMARY VOLUMETRIC BUDGET FOR GSFLOW 
 DATE: 09 17 2000              CUMULATIVE TIME STEP:      17
 MODFLOW STRESS PERIOD    121     CURRENT TIME STEP:    3640     ITERATIONS:       7

 -----------------------------------------------------------------------------------

   CUMULATIVE VOLUMES               L**3   RATES FOR THIS TIME STEP           L**3/T
   ------------------                      ------------------------

                                     IN                                         IN
                                     --                                         --
        PRECIPITATION =        2.4013D+08          PRECIPITATION =                  
           STREAMFLOW =                               STREAMFLOW =                  
     GW BOUNDARY FLOW =          15045.50       GW BOUNDARY FLOW =              6.20


                                    OUT                                        OUT
                                    ---                                        ---
   EVAPOTRANSPIRATION =        1.4289D+08     EVAPOTRANSPIRATION =          10695.71
           STREAMFLOW =        1.2301D+08             STREAMFLOW =           4194.93
     GW BOUNDARY FLOW =          95956.72       GW BOUNDARY FLOW =             21.93

   INFLOWS - OUTFLOWS =       -2.5849D+07     INFLOWS - OUTFLOWS =         -14906.37
             --------                                   --------

 TOTAL STORAGE CHANGE =       -2.5832D+07         STORAGE CHANGE =         -14904.95
       --------------                             --------------
         LAND SURFACE =                             LAND SURFACE =                  
            SOIL ZONE =       -1956254.05              SOIL ZONE =          -3100.24
     UNSATURATED ZONE =         322918.29       UNSATURATED ZONE =          -1641.90
       SATURATED ZONE =       -2.4199D+07         SATURATED ZONE =         -10162.81

 OVERALL BUDGET ERROR =         -16483.84           BUDGET ERROR =             -1.42


  PERCENT DISCREPANCY =             -0.01    PERCENT DISCREPANCY =             -0.01



1
 SUMMARY VOLUMETRIC BUDGET FOR GSFLOW 
 DATE: 09 24 2000              CUMULATIVE TIME STEP:      24
 MODFLOW STRESS PERIOD    121     CURRENT TIME STEP:    3647     ITERATIONS:       4

 -----------------------------------------------------------------------------------

   CUMULATIVE VOLUMES               L**3   RATES FOR THIS TIME STEP           L**3/T
   ------------------                      ------------------------

                                     IN                                         IN
                                     --                                         --
        PRECIPITATION =        2.4013D+08          PRECIPITATION =                  
           STREAMFLOW =                               STREAMFLOW =                  
     GW BOUNDARY FLOW =          15088.93       GW BOUNDARY FLOW =              6.21


                                    OUT                                        OUT
                                    ---                                        ---
   EVAPOTRANSPIRATION =        1.4295D+08     EVAPOTRANSPIRATION =           5213.79
           STREAMFLOW =        1.2304D+08             STREAMFLOW =           5424.24
     GW BOUNDARY FLOW =          96110.57       GW BOUNDARY FLOW =             22.06

   INFLOWS - OUTFLOWS =       -2.5938D+07     INFLOWS - OUTFLOWS =         -10653.89
             --------                                   --------

 TOTAL STORAGE CHANGE =       -2.5922D+07         STORAGE CHANGE =         -10636.71
       --------------                             --------------
         LAND SURFACE =                             LAND SURFACE =                  
            SOIL ZONE =       -1970153.45              SOIL ZONE =          -1117.76
     UNSATURATED ZONE =         311727.09       UNSATURATED ZONE =          -1573.35
       SATURATED ZONE =       -2.4263D+07         SATURATED ZONE =          -7945.60

 OVERALL BUDGET ERROR =         -16503.66           BUDGET ERROR =            -17.18


  PERCENT DISCREPANCY =             -0.01    PERCENT DISCREPANCY =             -0.16



1
 SUMMARY VOLUMETRIC BUDGET FOR GSFLOW 
 DATE: 10 01 2000              CUMULATIVE TIME STEP:       1
 MODFLOW STRESS PERIOD    122     CURRENT TIME STEP:    3654     ITERATIONS:       9

 -----------------------------------------------------------------------------------

   CUMULATIVE VOLUMES               L**3   RATES FOR THIS TIME STEP           L**3/T
   ------------------                      ------------------------

                                     IN                                         IN
                                     --                                         --
        PRECIPITATION =        2.4013D+08          PRECIPITATION =                  
           STREAMFLOW =                               STREAMFLOW =                  
     GW BOUNDARY FLOW =          15132.41       GW BOUNDARY FLOW =              6.21


                                    OUT                                        OUT
                                    ---                                        ---
   EVAPOTRANSPIRATION =        1.4301D+08     EVAPOTRANSPIRATION =           8398.25
           STREAMFLOW =        1.2307D+08             STREAMFLOW =           4493.43
     GW BOUNDARY FLOW =          96264.31       GW BOUNDARY FLOW =             21.96

   INFLOWS - OUTFLOWS =       -2.6030D+07     INFLOWS - OUTFLOWS =         -12907.43
             --------                                   --------

 TOTAL STORAGE CHANGE =       -2.6014D+07         STORAGE CHANGE =         -12907.83
       --------------                             --------------
         LAND SURFACE =                             LAND SURFACE =                  
            SOIL ZONE =       -1982604.54              SOIL ZONE =          -1624.40
     UNSATURATED ZONE =         297596.04       UNSATURATED ZONE =          -1633.26
       SATURATED ZONE =       -2.4329D+07         SATURATED ZONE =          -9650.17

 OVERALL BUDGET ERROR =         -16504.68           BUDGET ERROR =              0.40


  PERCENT DISCREPANCY =             -0.01    PERCENT DISCREPANCY =              0.00



1
 SUMMARY VOLUMETRIC BUDGET FOR GSFLOW 
 DATE: 10 08 2000              CUMULATIVE TIME STEP:       8
 MODFLOW STRESS PERIOD    122     CURRENT TIME STEP:    3661     ITERATIONS:       4

 -----------------------------------------------------------------------------------

   CUMULATIVE VOLUMES               L**3   RATES FOR THIS TIME STEP           L**3/T
   ------------------                      ------------------------

                                     IN                                         IN
                                     --                                         --
        PRECIPITATION =        2.4013D+08          PRECIPITATION =                  
           STREAMFLOW =                               STREAMFLOW =                  
     GW BOUNDARY FLOW =          15175.94       GW BOUNDARY FLOW =              6.22


                                    OUT                                        OUT
                                    ---                                        ---
   EVAPOTRANSPIRATION =        1.4306D+08     EVAPOTRANSPIRATION =           7048.75
           STREAMFLOW =        1.2310D+08             STREAMFLOW =           4890.16
     GW BOUNDARY FLOW =          96418.25       GW BOUNDARY FLOW =             22.00

   INFLOWS - OUTFLOWS =       -2.6115D+07     INFLOWS - OUTFLOWS =         -11954.69
             --------                                   --------

 TOTAL STORAGE CHANGE =       -2.6099D+07         STORAGE CHANGE =         -11937.16
       --------------                             --------------
         LAND SURFACE =                             LAND SURFACE =                  
            SOIL ZONE =       -1991819.65              SOIL ZONE =          -1208.14
     UNSATURATED ZONE =         285506.76       UNSATURATED ZONE =          -1629.09
       SATURATED ZONE =       -2.4393D+07         SATURATED ZONE =          -9099.93

 OVERALL BUDGET ERROR =         -16523.23           BUDGET ERROR =            -17.53


  PERCENT DISCREPANCY =             -0.01    PERCENT DISCREPANCY =             -0.15



1
 SUMMARY VOLUMETRIC BUDGET FOR GSFLOW 
 DATE: 10 15 2000              CUMULATIVE TIME STEP:      15
 MODFLOW STRESS PERIOD    122     CURRENT TIME STEP:    3668     ITERATIONS:       4

 -----------------------------------------------------------------------------------

   CUMULATIVE VOLUMES               L**3   RATES FOR THIS TIME STEP           L**3/T
   ------------------                      ------------------------

                                     IN                                         IN
                                     --                                         --
        PRECIPITATION =        2.4034D+08          PRECIPITATION =                  
           STREAMFLOW =                               STREAMFLOW =                  
     GW BOUNDARY FLOW =          15219.49       GW BOUNDARY FLOW =              6.22


                                    OUT                                        OUT
                                    ---                                        ---
   EVAPOTRANSPIRATION =        1.4312D+08     EVAPOTRANSPIRATION =           7500.17
           STREAMFLOW =        1.2315D+08             STREAMFLOW =           6238.34
     GW BOUNDARY FLOW =          96573.65       GW BOUNDARY FLOW =             22.16

   INFLOWS - OUTFLOWS =       -2.6006D+07     INFLOWS - OUTFLOWS =         -13754.45
             --------                                   --------

 TOTAL STORAGE CHANGE =       -2.5990D+07         STORAGE CHANGE =         -13737.24
       --------------                             --------------
         LAND SURFACE =             11.88           LAND SURFACE =            -60.12
            SOIL ZONE =       -1827814.54              SOIL ZONE =          -4847.74
     UNSATURATED ZONE =         274160.04       UNSATURATED ZONE =          -1643.82
       SATURATED ZONE =       -2.4436D+07         SATURATED ZONE =          -7185.56

 OVERALL BUDGET ERROR =         -16552.16           BUDGET ERROR =            -17.21


  PERCENT DISCREPANCY =             -0.01    PERCENT DISCREPANCY =             -0.13



1
 SUMMARY VOLUMETRIC BUDGET FOR GSFLOW 
 DATE: 10 22 2000              CUMULATIVE TIME STEP:      22
 MODFLOW STRESS PERIOD    122     CURRENT TIME STEP:    3675     ITERATIONS:       5

 -----------------------------------------------------------------------------------

   CUMULATIVE VOLUMES               L**3   RATES FOR THIS TIME STEP           L**3/T
   ------------------                      ------------------------

                                     IN                                         IN
                                     --                                         --
        PRECIPITATION =        2.4039D+08          PRECIPITATION =                  
           STREAMFLOW =                               STREAMFLOW =                  
     GW BOUNDARY FLOW =          15263.08       GW BOUNDARY FLOW =              6.23


                                    OUT                                        OUT
                                    ---                                        ---
   EVAPOTRANSPIRATION =        1.4318D+08     EVAPOTRANSPIRATION =           8693.71
           STREAMFLOW =        1.2319D+08             STREAMFLOW =           7211.41
     GW BOUNDARY FLOW =          96728.98       GW BOUNDARY FLOW =             22.29

   INFLOWS - OUTFLOWS =       -2.6064D+07     INFLOWS - OUTFLOWS =         -15921.18
             --------                                   --------

 TOTAL STORAGE CHANGE =       -2.6047D+07         STORAGE CHANGE =         -15916.48
       --------------                             --------------
         LAND SURFACE =          14940.20           LAND SURFACE =          -8673.07
            SOIL ZONE =       -1839637.99              SOIL ZONE =             33.10
     UNSATURATED ZONE =         262985.26       UNSATURATED ZONE =          -1498.64
       SATURATED ZONE =       -2.4485D+07         SATURATED ZONE =          -5777.88

 OVERALL BUDGET ERROR =         -16581.66           BUDGET ERROR =             -4.70


  PERCENT DISCREPANCY =             -0.01    PERCENT DISCREPANCY =             -0.03



1
 SUMMARY VOLUMETRIC BUDGET FOR GSFLOW 
 DATE: 10 29 2000              CUMULATIVE TIME STEP:      29
 MODFLOW STRESS PERIOD    122     CURRENT TIME STEP:    3682     ITERATIONS:       5

 -----------------------------------------------------------------------------------

   CUMULATIVE VOLUMES               L**3   RATES FOR THIS TIME STEP           L**3/T
   ------------------                      ------------------------

                                     IN                                         IN
                                     --                                         --
        PRECIPITATION =        2.4111D+08          PRECIPITATION =          24578.20
           STREAMFLOW =                               STREAMFLOW =                  
     GW BOUNDARY FLOW =          15306.70       GW BOUNDARY FLOW =              6.23


                                    OUT                                        OUT
                                    ---                                        ---
   EVAPOTRANSPIRATION =        1.4322D+08     EVAPOTRANSPIRATION =           4121.03
           STREAMFLOW =        1.2324D+08             STREAMFLOW =           7200.52
     GW BOUNDARY FLOW =          96884.96       GW BOUNDARY FLOW =             22.32

   INFLOWS - OUTFLOWS =       -2.5431D+07     INFLOWS - OUTFLOWS =          13240.56
             --------                                   --------

 TOTAL STORAGE CHANGE =       -2.5414D+07         STORAGE CHANGE =          13245.17
       --------------                             --------------
         LAND SURFACE =         498945.50           LAND SURFACE =          15332.79
            SOIL ZONE =       -1636327.40              SOIL ZONE =           5405.73
     UNSATURATED ZONE =         251984.16       UNSATURATED ZONE =          -1587.21
       SATURATED ZONE =       -2.4529D+07         SATURATED ZONE =          -5906.14

 OVERALL BUDGET ERROR =         -16603.09           BUDGET ERROR =             -4.61


  PERCENT DISCREPANCY =             -0.01    PERCENT DISCREPANCY =             -0.02



