1
 SUMMARY VOLUMETRIC BUDGET FOR GSFLOW 
 DATE: 10 07 1990              CUMULATIVE TIME STEP:       7
 MODFLOW STRESS PERIOD      2     CURRENT TIME STEP:       7     ITERATIONS:       9

 -----------------------------------------------------------------------------------

   CUMULATIVE VOLUMES               L**3   RATES FOR THIS TIME STEP           L**3/T
   ------------------                      ------------------------

                                     IN                                         IN
                                     --                                         --
        PRECIPITATION =                            PRECIPITATION =                  
           STREAMFLOW =                               STREAMFLOW =                  
     GW BOUNDARY FLOW =                         GW BOUNDARY FLOW =                  


                                    OUT                                        OUT
                                    ---                                        ---
   EVAPOTRANSPIRATION =         394929.38     EVAPOTRANSPIRATION =          13151.72
           STREAMFLOW =          57612.10             STREAMFLOW =           9070.85
     GW BOUNDARY FLOW =            253.94       GW BOUNDARY FLOW =             36.37

   INFLOWS - OUTFLOWS =        -452795.42     INFLOWS - OUTFLOWS =         -22258.94
             --------                                   --------

 TOTAL STORAGE CHANGE =        -452008.99         STORAGE CHANGE =         -22197.29
       --------------                             --------------
         LAND SURFACE =                             LAND SURFACE =                  
            SOIL ZONE =        -365815.14              SOIL ZONE =          -8150.23
     UNSATURATED ZONE =        -239430.59       UNSATURATED ZONE =         -32085.86
       SATURATED ZONE =         153236.74         SATURATED ZONE =          18038.81

 OVERALL BUDGET ERROR =           -786.43           BUDGET ERROR =            -61.66


  PERCENT DISCREPANCY =             -0.17    PERCENT DISCREPANCY =             -0.28



1
 SUMMARY VOLUMETRIC BUDGET FOR GSFLOW 
 DATE: 10 14 1990              CUMULATIVE TIME STEP:      14
 MODFLOW STRESS PERIOD      2     CURRENT TIME STEP:      14     ITERATIONS:       6

 -----------------------------------------------------------------------------------

   CUMULATIVE VOLUMES               L**3   RATES FOR THIS TIME STEP           L**3/T
   ------------------                      ------------------------

                                     IN                                         IN
                                     --                                         --
        PRECIPITATION =                            PRECIPITATION =                  
           STREAMFLOW =                               STREAMFLOW =                  
     GW BOUNDARY FLOW =                         GW BOUNDARY FLOW =                  


                                    OUT                                        OUT
                                    ---                                        ---
   EVAPOTRANSPIRATION =         715987.35     EVAPOTRANSPIRATION =          59027.05
           STREAMFLOW =         118258.85             STREAMFLOW =           8920.03
     GW BOUNDARY FLOW =            508.48       GW BOUNDARY FLOW =             36.38

   INFLOWS - OUTFLOWS =        -834754.68     INFLOWS - OUTFLOWS =         -67983.46
             --------                                   --------

 TOTAL STORAGE CHANGE =        -833515.01         STORAGE CHANGE =         -67930.13
       --------------                             --------------
         LAND SURFACE =                             LAND SURFACE =                  
            SOIL ZONE =        -553730.59              SOIL ZONE =         -34180.91
     UNSATURATED ZONE =        -530884.56       UNSATURATED ZONE =         -45170.09
       SATURATED ZONE =         251100.14         SATURATED ZONE =          11420.86

 OVERALL BUDGET ERROR =          -1239.68           BUDGET ERROR =            -53.33


  PERCENT DISCREPANCY =             -0.15    PERCENT DISCREPANCY =             -0.08



1
 SUMMARY VOLUMETRIC BUDGET FOR GSFLOW 
 DATE: 10 21 1990              CUMULATIVE TIME STEP:      21
 MODFLOW STRESS PERIOD      2     CURRENT TIME STEP:      21     ITERATIONS:       6

 -----------------------------------------------------------------------------------

   CUMULATIVE VOLUMES               L**3   RATES FOR THIS TIME STEP           L**3/T
   ------------------                      ------------------------

                                     IN                                         IN
                                     --                                         --
        PRECIPITATION =         188432.87          PRECIPITATION =                  
           STREAMFLOW =                               STREAMFLOW =                  
     GW BOUNDARY FLOW =                         GW BOUNDARY FLOW =                  


                                    OUT                                        OUT
                                    ---                                        ---
   EVAPOTRANSPIRATION =         928290.25     EVAPOTRANSPIRATION =          39716.48
           STREAMFLOW =         186154.58             STREAMFLOW =          10047.13
     GW BOUNDARY FLOW =            763.67       GW BOUNDARY FLOW =             36.47

   INFLOWS - OUTFLOWS =        -926775.63     INFLOWS - OUTFLOWS =         -49800.07
             --------                                   --------

 TOTAL STORAGE CHANGE =        -925273.83         STORAGE CHANGE =         -49770.29
       --------------                             --------------
         LAND SURFACE =           4395.42           LAND SURFACE =         -25675.32
            SOIL ZONE =        -504229.92              SOIL ZONE =          -7586.00
     UNSATURATED ZONE =        -758481.00       UNSATURATED ZONE =         -28287.61
       SATURATED ZONE =         333041.67         SATURATED ZONE =          11778.64

 OVERALL BUDGET ERROR =          -1501.80           BUDGET ERROR =            -29.78


  PERCENT DISCREPANCY =             -0.13    PERCENT DISCREPANCY =             -0.06



1
 SUMMARY VOLUMETRIC BUDGET FOR GSFLOW 
 DATE: 10 28 1990              CUMULATIVE TIME STEP:      28
 MODFLOW STRESS PERIOD      2     CURRENT TIME STEP:      28     ITERATIONS:       6

 -----------------------------------------------------------------------------------

   CUMULATIVE VOLUMES               L**3   RATES FOR THIS TIME STEP           L**3/T
   ------------------                      ------------------------

                                     IN                                         IN
                                     --                                         --
        PRECIPITATION =         188432.87          PRECIPITATION =                  
           STREAMFLOW =                               STREAMFLOW =                  
     GW BOUNDARY FLOW =                         GW BOUNDARY FLOW =                  


                                    OUT                                        OUT
                                    ---                                        ---
   EVAPOTRANSPIRATION =        1194098.22     EVAPOTRANSPIRATION =          27729.30
           STREAMFLOW =         253631.67             STREAMFLOW =           9812.10
     GW BOUNDARY FLOW =           1018.40       GW BOUNDARY FLOW =             36.36

   INFLOWS - OUTFLOWS =       -1260315.42     INFLOWS - OUTFLOWS =         -37577.76
             --------                                   --------

 TOTAL STORAGE CHANGE =       -1258597.12         STORAGE CHANGE =         -37550.81
       --------------                             --------------
         LAND SURFACE =                             LAND SURFACE =                  
            SOIL ZONE =        -668130.87              SOIL ZONE =         -18190.71
     UNSATURATED ZONE =        -989449.05       UNSATURATED ZONE =         -28525.77
       SATURATED ZONE =         398982.80         SATURATED ZONE =           9165.67

 OVERALL BUDGET ERROR =          -1718.29           BUDGET ERROR =            -26.96


  PERCENT DISCREPANCY =             -0.12    PERCENT DISCREPANCY =             -0.07



1
 SUMMARY VOLUMETRIC BUDGET FOR GSFLOW 
 DATE: 11 04 1990              CUMULATIVE TIME STEP:       4
 MODFLOW STRESS PERIOD      3     CURRENT TIME STEP:      35     ITERATIONS:       6

 -----------------------------------------------------------------------------------

   CUMULATIVE VOLUMES               L**3   RATES FOR THIS TIME STEP           L**3/T
   ------------------                      ------------------------

                                     IN                                         IN
                                     --                                         --
        PRECIPITATION =         703113.06          PRECIPITATION =                  
           STREAMFLOW =                               STREAMFLOW =                  
     GW BOUNDARY FLOW =                         GW BOUNDARY FLOW =                  


                                    OUT                                        OUT
                                    ---                                        ---
   EVAPOTRANSPIRATION =        1286054.61     EVAPOTRANSPIRATION =          26232.94
           STREAMFLOW =         327191.08             STREAMFLOW =          10778.62
     GW BOUNDARY FLOW =           1272.96       GW BOUNDARY FLOW =             36.35

   INFLOWS - OUTFLOWS =        -911405.59     INFLOWS - OUTFLOWS =         -37047.91
             --------                                   --------

 TOTAL STORAGE CHANGE =        -909537.03         STORAGE CHANGE =         -37030.19
       --------------                             --------------
         LAND SURFACE =          36990.26           LAND SURFACE =         -34939.93
            SOIL ZONE =        -268397.05              SOIL ZONE =           8813.54
     UNSATURATED ZONE =       -1149956.32       UNSATURATED ZONE =         -21506.64
       SATURATED ZONE =         471826.08         SATURATED ZONE =          10602.84

 OVERALL BUDGET ERROR =          -1868.56           BUDGET ERROR =            -17.72


  PERCENT DISCREPANCY =             -0.12    PERCENT DISCREPANCY =             -0.05



1
 SUMMARY VOLUMETRIC BUDGET FOR GSFLOW 
 DATE: 11 11 1990              CUMULATIVE TIME STEP:      11
 MODFLOW STRESS PERIOD      3     CURRENT TIME STEP:      42     ITERATIONS:       6

 -----------------------------------------------------------------------------------

   CUMULATIVE VOLUMES               L**3   RATES FOR THIS TIME STEP           L**3/T
   ------------------                      ------------------------

                                     IN                                         IN
                                     --                                         --
        PRECIPITATION =         703113.06          PRECIPITATION =                  
           STREAMFLOW =                               STREAMFLOW =                  
     GW BOUNDARY FLOW =                         GW BOUNDARY FLOW =                  


                                    OUT                                        OUT
                                    ---                                        ---
   EVAPOTRANSPIRATION =        1423657.25     EVAPOTRANSPIRATION =          27713.89
           STREAMFLOW =         402704.50             STREAMFLOW =          10670.94
     GW BOUNDARY FLOW =           1526.87       GW BOUNDARY FLOW =             36.20

   INFLOWS - OUTFLOWS =       -1124775.56     INFLOWS - OUTFLOWS =         -38421.02
             --------                                   --------

 TOTAL STORAGE CHANGE =       -1122788.41         STORAGE CHANGE =         -38405.04
       --------------                             --------------
         LAND SURFACE =            195.77           LAND SURFACE =           -519.43
            SOIL ZONE =        -364614.60              SOIL ZONE =         -25353.69
     UNSATURATED ZONE =       -1298072.20       UNSATURATED ZONE =         -21093.00
       SATURATED ZONE =         539702.62         SATURATED ZONE =           8561.08

 OVERALL BUDGET ERROR =          -1987.14           BUDGET ERROR =            -15.98


  PERCENT DISCREPANCY =             -0.11    PERCENT DISCREPANCY =             -0.04



1
 SUMMARY VOLUMETRIC BUDGET FOR GSFLOW 
 DATE: 11 18 1990              CUMULATIVE TIME STEP:      18
 MODFLOW STRESS PERIOD      3     CURRENT TIME STEP:      49     ITERATIONS:       6

 -----------------------------------------------------------------------------------

   CUMULATIVE VOLUMES               L**3   RATES FOR THIS TIME STEP           L**3/T
   ------------------                      ------------------------

                                     IN                                         IN
                                     --                                         --
        PRECIPITATION =         747883.35          PRECIPITATION =                  
           STREAMFLOW =                               STREAMFLOW =                  
     GW BOUNDARY FLOW =                         GW BOUNDARY FLOW =                  


                                    OUT                                        OUT
                                    ---                                        ---
   EVAPOTRANSPIRATION =        1535175.34     EVAPOTRANSPIRATION =           6032.30
           STREAMFLOW =         478207.28             STREAMFLOW =          10926.84
     GW BOUNDARY FLOW =           1779.89       GW BOUNDARY FLOW =             36.11

   INFLOWS - OUTFLOWS =       -1267279.16     INFLOWS - OUTFLOWS =         -16995.25
             --------                                   --------

 TOTAL STORAGE CHANGE =       -1265188.29         STORAGE CHANGE =         -16981.09
       --------------                             --------------
         LAND SURFACE =           5912.97           LAND SURFACE =          -3365.44
            SOIL ZONE =        -426019.23              SOIL ZONE =          -1817.85
     UNSATURATED ZONE =       -1442517.93       UNSATURATED ZONE =         -20004.54
       SATURATED ZONE =         597435.90         SATURATED ZONE =           8206.74

 OVERALL BUDGET ERROR =          -2090.87           BUDGET ERROR =            -14.16


  PERCENT DISCREPANCY =             -0.10    PERCENT DISCREPANCY =             -0.08



1
 SUMMARY VOLUMETRIC BUDGET FOR GSFLOW 
 DATE: 11 25 1990              CUMULATIVE TIME STEP:      25
 MODFLOW STRESS PERIOD      3     CURRENT TIME STEP:      56     ITERATIONS:       6

 -----------------------------------------------------------------------------------

   CUMULATIVE VOLUMES               L**3   RATES FOR THIS TIME STEP           L**3/T
   ------------------                      ------------------------

                                     IN                                         IN
                                     --                                         --
        PRECIPITATION =        1009043.38          PRECIPITATION =         186542.88
           STREAMFLOW =                               STREAMFLOW =                  
     GW BOUNDARY FLOW =                         GW BOUNDARY FLOW =                  


                                    OUT                                        OUT
                                    ---                                        ---
   EVAPOTRANSPIRATION =        1599394.40     EVAPOTRANSPIRATION =           6357.62
           STREAMFLOW =         555863.70             STREAMFLOW =          11145.11
     GW BOUNDARY FLOW =           2032.52       GW BOUNDARY FLOW =             36.07

   INFLOWS - OUTFLOWS =       -1148247.23     INFLOWS - OUTFLOWS =         169004.08
             --------                                   --------

 TOTAL STORAGE CHANGE =       -1146070.05         STORAGE CHANGE =         169014.03
       --------------                             --------------
         LAND SURFACE =          37126.34           LAND SURFACE =          20235.48
            SOIL ZONE =        -257996.29              SOIL ZONE =         160277.17
     UNSATURATED ZONE =       -1578596.84       UNSATURATED ZONE =         -19158.08
       SATURATED ZONE =         653396.74         SATURATED ZONE =           7659.46

 OVERALL BUDGET ERROR =          -2177.18           BUDGET ERROR =             -9.95


  PERCENT DISCREPANCY =             -0.10    PERCENT DISCREPANCY =             -0.01



1
 SUMMARY VOLUMETRIC BUDGET FOR GSFLOW 
 DATE: 12 02 1990              CUMULATIVE TIME STEP:       2
 MODFLOW STRESS PERIOD      4     CURRENT TIME STEP:      63     ITERATIONS:       6

 -----------------------------------------------------------------------------------

   CUMULATIVE VOLUMES               L**3   RATES FOR THIS TIME STEP           L**3/T
   ------------------                      ------------------------

                                     IN                                         IN
                                     --                                         --
        PRECIPITATION =        1449284.55          PRECIPITATION =                  
           STREAMFLOW =                               STREAMFLOW =                  
     GW BOUNDARY FLOW =                         GW BOUNDARY FLOW =                  


                                    OUT                                        OUT
                                    ---                                        ---
   EVAPOTRANSPIRATION =        1607138.21     EVAPOTRANSPIRATION =            374.58
           STREAMFLOW =         634632.87             STREAMFLOW =          11409.02
     GW BOUNDARY FLOW =           2284.63       GW BOUNDARY FLOW =             35.98

   INFLOWS - OUTFLOWS =        -794771.15     INFLOWS - OUTFLOWS =         -11819.58
             --------                                   --------

 TOTAL STORAGE CHANGE =        -792548.22         STORAGE CHANGE =         -11813.37
       --------------                             --------------
         LAND SURFACE =         437197.96           LAND SURFACE =           -451.19
            SOIL ZONE =        -224354.02              SOIL ZONE =            226.37
     UNSATURATED ZONE =       -1708977.13       UNSATURATED ZONE =         -18266.54
       SATURATED ZONE =         703584.97         SATURATED ZONE =           6677.99

 OVERALL BUDGET ERROR =          -2222.93           BUDGET ERROR =             -6.21


  PERCENT DISCREPANCY =             -0.10    PERCENT DISCREPANCY =             -0.05



1
 SUMMARY VOLUMETRIC BUDGET FOR GSFLOW 
 DATE: 12 09 1990              CUMULATIVE TIME STEP:       9
 MODFLOW STRESS PERIOD      4     CURRENT TIME STEP:      70     ITERATIONS:       5

 -----------------------------------------------------------------------------------

   CUMULATIVE VOLUMES               L**3   RATES FOR THIS TIME STEP           L**3/T
   ------------------                      ------------------------

                                     IN                                         IN
                                     --                                         --
        PRECIPITATION =        1449284.55          PRECIPITATION =                  
           STREAMFLOW =                               STREAMFLOW =                  
     GW BOUNDARY FLOW =                         GW BOUNDARY FLOW =                  


                                    OUT                                        OUT
                                    ---                                        ---
   EVAPOTRANSPIRATION =        1700719.67     EVAPOTRANSPIRATION =          20934.82
           STREAMFLOW =         715132.38             STREAMFLOW =          11538.72
     GW BOUNDARY FLOW =           2536.13       GW BOUNDARY FLOW =             35.89

   INFLOWS - OUTFLOWS =        -969103.62     INFLOWS - OUTFLOWS =         -32509.43
             --------                                   --------

 TOTAL STORAGE CHANGE =        -966838.48         STORAGE CHANGE =         -32506.97
       --------------                             --------------
         LAND SURFACE =          41512.44           LAND SURFACE =         -36212.48
            SOIL ZONE =          80655.58              SOIL ZONE =          16101.71
     UNSATURATED ZONE =       -1835027.52       UNSATURATED ZONE =         -17993.50
       SATURATED ZONE =         746021.02         SATURATED ZONE =           5597.29

 OVERALL BUDGET ERROR =          -2265.14           BUDGET ERROR =             -2.46


  PERCENT DISCREPANCY =             -0.09    PERCENT DISCREPANCY =             -0.01



1
 SUMMARY VOLUMETRIC BUDGET FOR GSFLOW 
 DATE: 12 16 1990              CUMULATIVE TIME STEP:      16
 MODFLOW STRESS PERIOD      4     CURRENT TIME STEP:      77     ITERATIONS:       5

 -----------------------------------------------------------------------------------

   CUMULATIVE VOLUMES               L**3   RATES FOR THIS TIME STEP           L**3/T
   ------------------                      ------------------------

                                     IN                                         IN
                                     --                                         --
        PRECIPITATION =        1804962.84          PRECIPITATION =                  
           STREAMFLOW =                               STREAMFLOW =                  
     GW BOUNDARY FLOW =                         GW BOUNDARY FLOW =                  


                                    OUT                                        OUT
                                    ---                                        ---
   EVAPOTRANSPIRATION =        1741508.08     EVAPOTRANSPIRATION =                  
           STREAMFLOW =         796451.44             STREAMFLOW =          11664.05
     GW BOUNDARY FLOW =           2786.99       GW BOUNDARY FLOW =             35.80

   INFLOWS - OUTFLOWS =        -735783.67     INFLOWS - OUTFLOWS =         -11699.85
             --------                                   --------

 TOTAL STORAGE CHANGE =        -733502.56         STORAGE CHANGE =         -11696.97
       --------------                             --------------
         LAND SURFACE =         187163.75           LAND SURFACE =                  
            SOIL ZONE =         252114.39              SOIL ZONE =            170.51
     UNSATURATED ZONE =       -1955632.74       UNSATURATED ZONE =         -16810.37
       SATURATED ZONE =         782852.05         SATURATED ZONE =           4942.89

 OVERALL BUDGET ERROR =          -2281.11           BUDGET ERROR =             -2.88


  PERCENT DISCREPANCY =             -0.09    PERCENT DISCREPANCY =             -0.02



1
 SUMMARY VOLUMETRIC BUDGET FOR GSFLOW 
 DATE: 12 23 1990              CUMULATIVE TIME STEP:      23
 MODFLOW STRESS PERIOD      4     CURRENT TIME STEP:      84     ITERATIONS:       5

 -----------------------------------------------------------------------------------

   CUMULATIVE VOLUMES               L**3   RATES FOR THIS TIME STEP           L**3/T
   ------------------                      ------------------------

                                     IN                                         IN
                                     --                                         --
        PRECIPITATION =        2276236.55          PRECIPITATION =                  
           STREAMFLOW =                               STREAMFLOW =                  
     GW BOUNDARY FLOW =                         GW BOUNDARY FLOW =                  


                                    OUT                                        OUT
                                    ---                                        ---
   EVAPOTRANSPIRATION =        1742886.32     EVAPOTRANSPIRATION =                  
           STREAMFLOW =         878534.65             STREAMFLOW =          11766.68
     GW BOUNDARY FLOW =           3037.25       GW BOUNDARY FLOW =             35.72

   INFLOWS - OUTFLOWS =        -348221.67     INFLOWS - OUTFLOWS =         -11802.39
             --------                                   --------

 TOTAL STORAGE CHANGE =        -345913.11         STORAGE CHANGE =         -11797.79
       --------------                             --------------
         LAND SURFACE =         657066.96           LAND SURFACE =                  
            SOIL ZONE =         253361.89              SOIL ZONE =            182.84
     UNSATURATED ZONE =       -2070862.71       UNSATURATED ZONE =         -16197.28
       SATURATED ZONE =         814520.76         SATURATED ZONE =           4216.65

 OVERALL BUDGET ERROR =          -2308.56           BUDGET ERROR =             -4.60


  PERCENT DISCREPANCY =             -0.09    PERCENT DISCREPANCY =             -0.04



1
 SUMMARY VOLUMETRIC BUDGET FOR GSFLOW 
 DATE: 12 30 1990              CUMULATIVE TIME STEP:      30
 MODFLOW STRESS PERIOD      4     CURRENT TIME STEP:      91     ITERATIONS:       5

 -----------------------------------------------------------------------------------

   CUMULATIVE VOLUMES               L**3   RATES FOR THIS TIME STEP           L**3/T
   ------------------                      ------------------------

                                     IN                                         IN
                                     --                                         --
        PRECIPITATION =        2276236.55          PRECIPITATION =                  
           STREAMFLOW =                               STREAMFLOW =                  
     GW BOUNDARY FLOW =              0.03       GW BOUNDARY FLOW =              0.02


                                    OUT                                        OUT
                                    ---                                        ---
   EVAPOTRANSPIRATION =        1743639.19     EVAPOTRANSPIRATION =                  
           STREAMFLOW =         961194.92             STREAMFLOW =          11835.36
     GW BOUNDARY FLOW =           3287.77       GW BOUNDARY FLOW =             35.78

   INFLOWS - OUTFLOWS =        -431885.30     INFLOWS - OUTFLOWS =         -11871.13
             --------                                   --------

 TOTAL STORAGE CHANGE =        -429539.29         STORAGE CHANGE =         -11865.15
       --------------                             --------------
         LAND SURFACE =         656314.47           LAND SURFACE =                  
            SOIL ZONE =         254670.86              SOIL ZONE =            190.71
     UNSATURATED ZONE =       -2181543.28       UNSATURATED ZONE =         -15548.35
       SATURATED ZONE =         841018.66         SATURATED ZONE =           3492.49

 OVERALL BUDGET ERROR =          -2346.01           BUDGET ERROR =             -5.98


  PERCENT DISCREPANCY =             -0.09    PERCENT DISCREPANCY =             -0.05



1
 SUMMARY VOLUMETRIC BUDGET FOR GSFLOW 
 DATE: 01 06 1991              CUMULATIVE TIME STEP:       6
 MODFLOW STRESS PERIOD      5     CURRENT TIME STEP:      98     ITERATIONS:       6

 -----------------------------------------------------------------------------------

   CUMULATIVE VOLUMES               L**3   RATES FOR THIS TIME STEP           L**3/T
   ------------------                      ------------------------

                                     IN                                         IN
                                     --                                         --
        PRECIPITATION =        2276236.55          PRECIPITATION =                  
           STREAMFLOW =                               STREAMFLOW =                  
     GW BOUNDARY FLOW =              0.57       GW BOUNDARY FLOW =              0.12


                                    OUT                                        OUT
                                    ---                                        ---
   EVAPOTRANSPIRATION =        1766981.89     EVAPOTRANSPIRATION =           2588.73
           STREAMFLOW =        1043035.18             STREAMFLOW =          11801.46
     GW BOUNDARY FLOW =           3538.25       GW BOUNDARY FLOW =             35.79

   INFLOWS - OUTFLOWS =        -537318.20     INFLOWS - OUTFLOWS =         -14425.86
             --------                                   --------

 TOTAL STORAGE CHANGE =        -534927.96         STORAGE CHANGE =         -14419.10
       --------------                             --------------
         LAND SURFACE =         548041.04           LAND SURFACE =          -6127.39
            SOIL ZONE =         341069.34              SOIL ZONE =           3745.10
     UNSATURATED ZONE =       -2288110.73       UNSATURATED ZONE =         -14960.16
       SATURATED ZONE =         864072.39         SATURATED ZONE =           2923.34

 OVERALL BUDGET ERROR =          -2390.25           BUDGET ERROR =             -6.75


  PERCENT DISCREPANCY =             -0.08    PERCENT DISCREPANCY =             -0.05



1
 SUMMARY VOLUMETRIC BUDGET FOR GSFLOW 
 DATE: 01 13 1991              CUMULATIVE TIME STEP:      13
 MODFLOW STRESS PERIOD      5     CURRENT TIME STEP:     105     ITERATIONS:       6

 -----------------------------------------------------------------------------------

   CUMULATIVE VOLUMES               L**3   RATES FOR THIS TIME STEP           L**3/T
   ------------------                      ------------------------

                                     IN                                         IN
                                     --                                         --
        PRECIPITATION =        2596386.94          PRECIPITATION =          10327.43
           STREAMFLOW =                               STREAMFLOW =                  
     GW BOUNDARY FLOW =              1.77       GW BOUNDARY FLOW =              0.21


                                    OUT                                        OUT
                                    ---                                        ---
   EVAPOTRANSPIRATION =        1829070.59     EVAPOTRANSPIRATION =          18257.99
           STREAMFLOW =        1125864.12             STREAMFLOW =          11713.87
     GW BOUNDARY FLOW =           3788.70       GW BOUNDARY FLOW =             35.76

   INFLOWS - OUTFLOWS =        -362334.70     INFLOWS - OUTFLOWS =         -19679.98
             --------                                   --------

 TOTAL STORAGE CHANGE =        -359890.42         STORAGE CHANGE =         -19672.46
       --------------                             --------------
         LAND SURFACE =         512042.81           LAND SURFACE =        -134113.87
            SOIL ZONE =         640320.51              SOIL ZONE =         129020.18
     UNSATURATED ZONE =       -2392884.10       UNSATURATED ZONE =         -16013.07
       SATURATED ZONE =         880630.36         SATURATED ZONE =           1434.30

 OVERALL BUDGET ERROR =          -2444.29           BUDGET ERROR =             -7.52


  PERCENT DISCREPANCY =             -0.08    PERCENT DISCREPANCY =             -0.03



1
 SUMMARY VOLUMETRIC BUDGET FOR GSFLOW 
 DATE: 01 20 1991              CUMULATIVE TIME STEP:      20
 MODFLOW STRESS PERIOD      5     CURRENT TIME STEP:     112     ITERATIONS:       6

 -----------------------------------------------------------------------------------

   CUMULATIVE VOLUMES               L**3   RATES FOR THIS TIME STEP           L**3/T
   ------------------                      ------------------------

                                     IN                                         IN
                                     --                                         --
        PRECIPITATION =        2596386.94          PRECIPITATION =                  
           STREAMFLOW =                               STREAMFLOW =                  
     GW BOUNDARY FLOW =              3.58       GW BOUNDARY FLOW =              0.30


                                    OUT                                        OUT
                                    ---                                        ---
   EVAPOTRANSPIRATION =        1899512.26     EVAPOTRANSPIRATION =           1899.32
           STREAMFLOW =        1207950.65             STREAMFLOW =          11917.69
     GW BOUNDARY FLOW =           4039.14       GW BOUNDARY FLOW =             35.78

   INFLOWS - OUTFLOWS =        -515111.53     INFLOWS - OUTFLOWS =         -13852.49
             --------                                   --------

 TOTAL STORAGE CHANGE =        -512621.97         STORAGE CHANGE =         -13845.03
       --------------                             --------------
         LAND SURFACE =         353293.53           LAND SURFACE =           -254.70
            SOIL ZONE =         733972.01              SOIL ZONE =          -1320.42
     UNSATURATED ZONE =       -2493905.05       UNSATURATED ZONE =         -13895.27
       SATURATED ZONE =         894017.54         SATURATED ZONE =           1625.36

 OVERALL BUDGET ERROR =          -2489.56           BUDGET ERROR =             -7.46


  PERCENT DISCREPANCY =             -0.08    PERCENT DISCREPANCY =             -0.05



1
 SUMMARY VOLUMETRIC BUDGET FOR GSFLOW 
 DATE: 01 27 1991              CUMULATIVE TIME STEP:      27
 MODFLOW STRESS PERIOD      5     CURRENT TIME STEP:     119     ITERATIONS:       5

 -----------------------------------------------------------------------------------

   CUMULATIVE VOLUMES               L**3   RATES FOR THIS TIME STEP           L**3/T
   ------------------                      ------------------------

                                     IN                                         IN
                                     --                                         --
        PRECIPITATION =        2596386.94          PRECIPITATION =                  
           STREAMFLOW =                               STREAMFLOW =                  
     GW BOUNDARY FLOW =              5.99       GW BOUNDARY FLOW =              0.38


                                    OUT                                        OUT
                                    ---                                        ---
   EVAPOTRANSPIRATION =        1921926.01     EVAPOTRANSPIRATION =           1246.58
           STREAMFLOW =        1291642.02             STREAMFLOW =          11996.33
     GW BOUNDARY FLOW =           4289.57       GW BOUNDARY FLOW =             35.78

   INFLOWS - OUTFLOWS =        -621464.66     INFLOWS - OUTFLOWS =         -13278.30
             --------                                   --------

 TOTAL STORAGE CHANGE =        -618894.29         STORAGE CHANGE =         -13266.36
       --------------                             --------------
         LAND SURFACE =         325482.21           LAND SURFACE =            -73.52
            SOIL ZONE =         742856.49              SOIL ZONE =           -928.69
     UNSATURATED ZONE =       -2589750.19       UNSATURATED ZONE =         -13272.84
       SATURATED ZONE =         902517.20         SATURATED ZONE =           1008.69

 OVERALL BUDGET ERROR =          -2570.37           BUDGET ERROR =            -11.94


  PERCENT DISCREPANCY =             -0.08    PERCENT DISCREPANCY =             -0.09



1
 SUMMARY VOLUMETRIC BUDGET FOR GSFLOW 
 DATE: 02 03 1991              CUMULATIVE TIME STEP:       3
 MODFLOW STRESS PERIOD      6     CURRENT TIME STEP:     126     ITERATIONS:       6

 -----------------------------------------------------------------------------------

   CUMULATIVE VOLUMES               L**3   RATES FOR THIS TIME STEP           L**3/T
   ------------------                      ------------------------

                                     IN                                         IN
                                     --                                         --
        PRECIPITATION =        3228422.31          PRECIPITATION =          30459.53
           STREAMFLOW =                               STREAMFLOW =                  
     GW BOUNDARY FLOW =              8.98       GW BOUNDARY FLOW =              0.46


                                    OUT                                        OUT
                                    ---                                        ---
   EVAPOTRANSPIRATION =        2027233.06     EVAPOTRANSPIRATION =          20882.16
           STREAMFLOW =        1375606.76             STREAMFLOW =          12044.75
     GW BOUNDARY FLOW =           4539.96       GW BOUNDARY FLOW =             35.77

   INFLOWS - OUTFLOWS =        -178948.49     INFLOWS - OUTFLOWS =          -2502.67
             --------                                   --------

 TOTAL STORAGE CHANGE =        -176300.19         STORAGE CHANGE =          -2494.65
       --------------                             --------------
         LAND SURFACE =         146751.00           LAND SURFACE =         -24802.24
            SOIL ZONE =        1456415.86              SOIL ZONE =          34740.70
     UNSATURATED ZONE =       -2685421.40       UNSATURATED ZONE =         -12768.36
       SATURATED ZONE =         905954.36         SATURATED ZONE =            335.25

 OVERALL BUDGET ERROR =          -2648.30           BUDGET ERROR =             -8.02


  PERCENT DISCREPANCY =             -0.08    PERCENT DISCREPANCY =             -0.02



1
 SUMMARY VOLUMETRIC BUDGET FOR GSFLOW 
 DATE: 02 10 1991              CUMULATIVE TIME STEP:      10
 MODFLOW STRESS PERIOD      6     CURRENT TIME STEP:     133     ITERATIONS:       5

 -----------------------------------------------------------------------------------

   CUMULATIVE VOLUMES               L**3   RATES FOR THIS TIME STEP           L**3/T
   ------------------                      ------------------------

                                     IN                                         IN
                                     --                                         --
        PRECIPITATION =        3510173.01          PRECIPITATION =                  
           STREAMFLOW =                               STREAMFLOW =                  
     GW BOUNDARY FLOW =             12.52       GW BOUNDARY FLOW =              0.54


                                    OUT                                        OUT
                                    ---                                        ---
   EVAPOTRANSPIRATION =        2195350.62     EVAPOTRANSPIRATION =          26021.70
           STREAMFLOW =        1460414.82             STREAMFLOW =          12136.99
     GW BOUNDARY FLOW =           4790.14       GW BOUNDARY FLOW =             35.70

   INFLOWS - OUTFLOWS =        -150370.05     INFLOWS - OUTFLOWS =         -38193.85
             --------                                   --------

 TOTAL STORAGE CHANGE =        -147635.28         STORAGE CHANGE =         -38179.40
       --------------                             --------------
         LAND SURFACE =          63774.58           LAND SURFACE =         -10017.74
            SOIL ZONE =        1646282.17              SOIL ZONE =         -16843.82
     UNSATURATED ZONE =       -2764510.15       UNSATURATED ZONE =         -11161.29
       SATURATED ZONE =         906818.12         SATURATED ZONE =           -156.54

 OVERALL BUDGET ERROR =          -2734.77           BUDGET ERROR =            -14.45


  PERCENT DISCREPANCY =             -0.07    PERCENT DISCREPANCY =             -0.04



1
 SUMMARY VOLUMETRIC BUDGET FOR GSFLOW 
 DATE: 02 17 1991              CUMULATIVE TIME STEP:      17
 MODFLOW STRESS PERIOD      6     CURRENT TIME STEP:     140     ITERATIONS:       5

 -----------------------------------------------------------------------------------

   CUMULATIVE VOLUMES               L**3   RATES FOR THIS TIME STEP           L**3/T
   ------------------                      ------------------------

                                     IN                                         IN
                                     --                                         --
        PRECIPITATION =        3510173.01          PRECIPITATION =                  
           STREAMFLOW =                               STREAMFLOW =                  
     GW BOUNDARY FLOW =             16.56       GW BOUNDARY FLOW =              0.61


                                    OUT                                        OUT
                                    ---                                        ---
   EVAPOTRANSPIRATION =        2439604.70     EVAPOTRANSPIRATION =          23162.46
           STREAMFLOW =        1545528.48             STREAMFLOW =          12174.72
     GW BOUNDARY FLOW =           5039.71       GW BOUNDARY FLOW =             35.61

   INFLOWS - OUTFLOWS =        -479983.32     INFLOWS - OUTFLOWS =         -35372.18
             --------                                   --------

 TOTAL STORAGE CHANGE =        -477141.46         STORAGE CHANGE =         -35356.45
       --------------                             --------------
         LAND SURFACE =          10625.62           LAND SURFACE =          -1107.15
            SOIL ZONE =        1449354.80              SOIL ZONE =         -23064.28
     UNSATURATED ZONE =       -2841098.70       UNSATURATED ZONE =         -10642.90
       SATURATED ZONE =         903976.81         SATURATED ZONE =           -542.12

 OVERALL BUDGET ERROR =          -2841.86           BUDGET ERROR =            -15.74


  PERCENT DISCREPANCY =             -0.07    PERCENT DISCREPANCY =             -0.04



1
 SUMMARY VOLUMETRIC BUDGET FOR GSFLOW 
 DATE: 02 24 1991              CUMULATIVE TIME STEP:      24
 MODFLOW STRESS PERIOD      6     CURRENT TIME STEP:     147     ITERATIONS:       5

 -----------------------------------------------------------------------------------

   CUMULATIVE VOLUMES               L**3   RATES FOR THIS TIME STEP           L**3/T
   ------------------                      ------------------------

                                     IN                                         IN
                                     --                                         --
        PRECIPITATION =        3510173.01          PRECIPITATION =                  
           STREAMFLOW =                               STREAMFLOW =                  
     GW BOUNDARY FLOW =             21.09       GW BOUNDARY FLOW =              0.68


                                    OUT                                        OUT
                                    ---                                        ---
   EVAPOTRANSPIRATION =        2633276.62     EVAPOTRANSPIRATION =          18113.41
           STREAMFLOW =        1629861.49             STREAMFLOW =          11932.59
     GW BOUNDARY FLOW =           5288.61       GW BOUNDARY FLOW =             35.50

   INFLOWS - OUTFLOWS =        -758232.61     INFLOWS - OUTFLOWS =         -30080.83
             --------                                   --------

 TOTAL STORAGE CHANGE =        -755281.25         STORAGE CHANGE =         -30063.52
       --------------                             --------------
         LAND SURFACE =           3951.44           LAND SURFACE =           -125.27
            SOIL ZONE =        1263101.86              SOIL ZONE =         -17367.29
     UNSATURATED ZONE =       -2915527.36       UNSATURATED ZONE =         -10618.70
       SATURATED ZONE =         893192.80         SATURATED ZONE =          -1952.26

 OVERALL BUDGET ERROR =          -2951.36           BUDGET ERROR =            -17.31


  PERCENT DISCREPANCY =             -0.07    PERCENT DISCREPANCY =             -0.06



1
 SUMMARY VOLUMETRIC BUDGET FOR GSFLOW 
 DATE: 03 03 1991              CUMULATIVE TIME STEP:       3
 MODFLOW STRESS PERIOD      7     CURRENT TIME STEP:     154     ITERATIONS:       5

 -----------------------------------------------------------------------------------

   CUMULATIVE VOLUMES               L**3   RATES FOR THIS TIME STEP           L**3/T
   ------------------                      ------------------------

                                     IN                                         IN
                                     --                                         --
        PRECIPITATION =        6220189.63          PRECIPITATION =        1243187.24
           STREAMFLOW =                               STREAMFLOW =                  
     GW BOUNDARY FLOW =             26.08       GW BOUNDARY FLOW =              0.74


                                    OUT                                        OUT
                                    ---                                        ---
   EVAPOTRANSPIRATION =        2762207.76     EVAPOTRANSPIRATION =           8690.52
           STREAMFLOW =        1713054.48             STREAMFLOW =          12166.58
     GW BOUNDARY FLOW =           5536.74       GW BOUNDARY FLOW =             35.44

   INFLOWS - OUTFLOWS =        1739416.73     INFLOWS - OUTFLOWS =        1222295.45
             --------                                   --------

 TOTAL STORAGE CHANGE =        1742494.60         STORAGE CHANGE =        1222313.42
       --------------                             --------------
         LAND SURFACE =        2158411.83           LAND SURFACE =         700230.68
            SOIL ZONE =        1697418.43              SOIL ZONE =         534040.63
     UNSATURATED ZONE =       -2989953.58       UNSATURATED ZONE =         -10035.38
       SATURATED ZONE =         876617.92         SATURATED ZONE =          -1922.51

 OVERALL BUDGET ERROR =          -3077.87           BUDGET ERROR =            -17.98


  PERCENT DISCREPANCY =             -0.05    PERCENT DISCREPANCY =             -0.00



1
 SUMMARY VOLUMETRIC BUDGET FOR GSFLOW 
 DATE: 03 10 1991              CUMULATIVE TIME STEP:      10
 MODFLOW STRESS PERIOD      7     CURRENT TIME STEP:     161     ITERATIONS:       5

 -----------------------------------------------------------------------------------

   CUMULATIVE VOLUMES               L**3   RATES FOR THIS TIME STEP           L**3/T
   ------------------                      ------------------------

                                     IN                                         IN
                                     --                                         --
        PRECIPITATION =        8746030.42          PRECIPITATION =          32888.55
           STREAMFLOW =                               STREAMFLOW =                  
     GW BOUNDARY FLOW =             31.47       GW BOUNDARY FLOW =              0.80


                                    OUT                                        OUT
                                    ---                                        ---
   EVAPOTRANSPIRATION =        2816680.56     EVAPOTRANSPIRATION =           7502.93
           STREAMFLOW =        2636065.37             STREAMFLOW =          13555.82
     GW BOUNDARY FLOW =           5790.58       GW BOUNDARY FLOW =             35.41

   INFLOWS - OUTFLOWS =        3287525.37     INFLOWS - OUTFLOWS =          11795.19
             --------                                   --------

 TOTAL STORAGE CHANGE =        3290688.52         STORAGE CHANGE =          11814.08
       --------------                             --------------
         LAND SURFACE =        2235698.36           LAND SURFACE =          -4542.91
            SOIL ZONE =        3180623.83              SOIL ZONE =          18237.64
     UNSATURATED ZONE =       -2993009.08       UNSATURATED ZONE =           -197.38
       SATURATED ZONE =         867375.41         SATURATED ZONE =          -1683.27

 OVERALL BUDGET ERROR =          -3163.14           BUDGET ERROR =            -18.89


  PERCENT DISCREPANCY =             -0.04    PERCENT DISCREPANCY =             -0.06



1
 SUMMARY VOLUMETRIC BUDGET FOR GSFLOW 
 DATE: 03 17 1991              CUMULATIVE TIME STEP:      17
 MODFLOW STRESS PERIOD      7     CURRENT TIME STEP:     168     ITERATIONS:       5

 -----------------------------------------------------------------------------------

   CUMULATIVE VOLUMES               L**3   RATES FOR THIS TIME STEP           L**3/T
   ------------------                      ------------------------

                                     IN                                         IN
                                     --                                         --
        PRECIPITATION =        9897129.71          PRECIPITATION =         157865.04
           STREAMFLOW =                               STREAMFLOW =                  
     GW BOUNDARY FLOW =             37.31       GW BOUNDARY FLOW =              0.86


                                    OUT                                        OUT
                                    ---                                        ---
   EVAPOTRANSPIRATION =        2839993.77     EVAPOTRANSPIRATION =           6975.64
           STREAMFLOW =        2739409.49             STREAMFLOW =          16637.70
     GW BOUNDARY FLOW =           6038.21       GW BOUNDARY FLOW =             35.36

   INFLOWS - OUTFLOWS =        4311725.56     INFLOWS - OUTFLOWS =         134217.20
             --------                                   --------

 TOTAL STORAGE CHANGE =        4314998.26         STORAGE CHANGE =         134235.70
       --------------                             --------------
         LAND SURFACE =        3338153.20           LAND SURFACE =         123394.04
            SOIL ZONE =        3117203.39              SOIL ZONE =          13951.54
     UNSATURATED ZONE =       -2996870.41       UNSATURATED ZONE =          -1258.16
       SATURATED ZONE =         856512.08         SATURATED ZONE =          -1851.71

 OVERALL BUDGET ERROR =          -3272.70           BUDGET ERROR =            -18.50


  PERCENT DISCREPANCY =             -0.03    PERCENT DISCREPANCY =             -0.01



1
 SUMMARY VOLUMETRIC BUDGET FOR GSFLOW 
 DATE: 03 24 1991              CUMULATIVE TIME STEP:      24
 MODFLOW STRESS PERIOD      7     CURRENT TIME STEP:     175     ITERATIONS:       5

 -----------------------------------------------------------------------------------

   CUMULATIVE VOLUMES               L**3   RATES FOR THIS TIME STEP           L**3/T
   ------------------                      ------------------------

                                     IN                                         IN
                                     --                                         --
        PRECIPITATION =        1.1673D+07          PRECIPITATION =        1230031.83
           STREAMFLOW =                               STREAMFLOW =                  
     GW BOUNDARY FLOW =             43.58       GW BOUNDARY FLOW =              0.92


                                    OUT                                        OUT
                                    ---                                        ---
   EVAPOTRANSPIRATION =        2873412.76     EVAPOTRANSPIRATION =           3938.13
           STREAMFLOW =        2858924.88             STREAMFLOW =          17592.74
     GW BOUNDARY FLOW =           6285.27       GW BOUNDARY FLOW =             35.25

   INFLOWS - OUTFLOWS =        5934532.18     INFLOWS - OUTFLOWS =        1208466.64
             --------                                   --------

 TOTAL STORAGE CHANGE =        5937913.22         STORAGE CHANGE =        1208484.18
       --------------                             --------------
         LAND SURFACE =        5073781.79           LAND SURFACE =        1227482.51
            SOIL ZONE =        3028038.83              SOIL ZONE =         -15308.37
     UNSATURATED ZONE =       -3008015.02       UNSATURATED ZONE =          -1947.20
       SATURATED ZONE =         844107.62         SATURATED ZONE =          -1742.76

 OVERALL BUDGET ERROR =          -3381.05           BUDGET ERROR =            -17.54


  PERCENT DISCREPANCY =             -0.03    PERCENT DISCREPANCY =             -0.00



1
 SUMMARY VOLUMETRIC BUDGET FOR GSFLOW 
 DATE: 03 31 1991              CUMULATIVE TIME STEP:      31
 MODFLOW STRESS PERIOD      7     CURRENT TIME STEP:     182     ITERATIONS:       6

 -----------------------------------------------------------------------------------

   CUMULATIVE VOLUMES               L**3   RATES FOR THIS TIME STEP           L**3/T
   ------------------                      ------------------------

                                     IN                                         IN
                                     --                                         --
        PRECIPITATION =        1.2495D+07          PRECIPITATION =                  
           STREAMFLOW =                               STREAMFLOW =                  
     GW BOUNDARY FLOW =             50.24       GW BOUNDARY FLOW =              0.98


                                    OUT                                        OUT
                                    ---                                        ---
   EVAPOTRANSPIRATION =        2981293.94     EVAPOTRANSPIRATION =          44630.25
           STREAMFLOW =        2998982.47             STREAMFLOW =          26061.71
     GW BOUNDARY FLOW =           6531.84       GW BOUNDARY FLOW =             35.28

   INFLOWS - OUTFLOWS =        6508567.28     INFLOWS - OUTFLOWS =         -70726.27
             --------                                   --------

 TOTAL STORAGE CHANGE =        6512046.06         STORAGE CHANGE =         -70716.85
       --------------                             --------------
         LAND SURFACE =        5647574.86           LAND SURFACE =        -132565.95
            SOIL ZONE =        3054621.51              SOIL ZONE =          65965.57
     UNSATURATED ZONE =       -3021868.81       UNSATURATED ZONE =          -2188.63
       SATURATED ZONE =         831718.51         SATURATED ZONE =          -1927.84

 OVERALL BUDGET ERROR =          -3478.78           BUDGET ERROR =             -9.43


  PERCENT DISCREPANCY =             -0.03    PERCENT DISCREPANCY =             -0.01



1
 SUMMARY VOLUMETRIC BUDGET FOR GSFLOW 
 DATE: 04 07 1991              CUMULATIVE TIME STEP:       7
 MODFLOW STRESS PERIOD      8     CURRENT TIME STEP:     189     ITERATIONS:       7

 -----------------------------------------------------------------------------------

   CUMULATIVE VOLUMES               L**3   RATES FOR THIS TIME STEP           L**3/T
   ------------------                      ------------------------

                                     IN                                         IN
                                     --                                         --
        PRECIPITATION =        1.3018D+07          PRECIPITATION =                  
           STREAMFLOW =                               STREAMFLOW =                  
     GW BOUNDARY FLOW =             57.27       GW BOUNDARY FLOW =              1.02


                                    OUT                                        OUT
                                    ---                                        ---
   EVAPOTRANSPIRATION =        3268528.49     EVAPOTRANSPIRATION =          13551.15
           STREAMFLOW =        3346336.96             STREAMFLOW =          53354.71
     GW BOUNDARY FLOW =           6780.56       GW BOUNDARY FLOW =             35.57

   INFLOWS - OUTFLOWS =        6396148.01     INFLOWS - OUTFLOWS =         -66940.41
             --------                                   --------

 TOTAL STORAGE CHANGE =        6399682.32         STORAGE CHANGE =         -66935.89
       --------------                             --------------
         LAND SURFACE =        4116185.84           LAND SURFACE =         -56924.70
            SOIL ZONE =        4458630.65              SOIL ZONE =         -18906.43
     UNSATURATED ZONE =       -2997091.73       UNSATURATED ZONE =           9696.20
       SATURATED ZONE =         821957.55         SATURATED ZONE =           -800.95

 OVERALL BUDGET ERROR =          -3534.31           BUDGET ERROR =             -4.53


  PERCENT DISCREPANCY =             -0.03    PERCENT DISCREPANCY =             -0.01



1
 SUMMARY VOLUMETRIC BUDGET FOR GSFLOW 
 DATE: 04 14 1991              CUMULATIVE TIME STEP:      14
 MODFLOW STRESS PERIOD      8     CURRENT TIME STEP:     196     ITERATIONS:       6

 -----------------------------------------------------------------------------------

   CUMULATIVE VOLUMES               L**3   RATES FOR THIS TIME STEP           L**3/T
   ------------------                      ------------------------

                                     IN                                         IN
                                     --                                         --
        PRECIPITATION =        1.3018D+07          PRECIPITATION =                  
           STREAMFLOW =                               STREAMFLOW =                  
     GW BOUNDARY FLOW =             64.63       GW BOUNDARY FLOW =              1.07


                                    OUT                                        OUT
                                    ---                                        ---
   EVAPOTRANSPIRATION =        3438457.23     EVAPOTRANSPIRATION =          38955.66
           STREAMFLOW =        3805946.25             STREAMFLOW =          73547.16
     GW BOUNDARY FLOW =           7029.97       GW BOUNDARY FLOW =             35.67

   INFLOWS - OUTFLOWS =        5766367.91     INFLOWS - OUTFLOWS =        -112537.42
             --------                                   --------

 TOTAL STORAGE CHANGE =        5769932.58         STORAGE CHANGE =        -112532.61
       --------------                             --------------
         LAND SURFACE =        3541064.89           LAND SURFACE =        -164763.05
            SOIL ZONE =        4344994.28              SOIL ZONE =          44468.58
     UNSATURATED ZONE =       -2935034.53       UNSATURATED ZONE =           7928.39
       SATURATED ZONE =         818907.94         SATURATED ZONE =           -166.53

 OVERALL BUDGET ERROR =          -3564.67           BUDGET ERROR =             -4.81


  PERCENT DISCREPANCY =             -0.03    PERCENT DISCREPANCY =             -0.00



1
 SUMMARY VOLUMETRIC BUDGET FOR GSFLOW 
 DATE: 04 21 1991              CUMULATIVE TIME STEP:      21
 MODFLOW STRESS PERIOD      8     CURRENT TIME STEP:     203     ITERATIONS:       6

 -----------------------------------------------------------------------------------

   CUMULATIVE VOLUMES               L**3   RATES FOR THIS TIME STEP           L**3/T
   ------------------                      ------------------------

                                     IN                                         IN
                                     --                                         --
        PRECIPITATION =        1.3034D+07          PRECIPITATION =                  
           STREAMFLOW =                               STREAMFLOW =                  
     GW BOUNDARY FLOW =             72.29       GW BOUNDARY FLOW =              1.11


                                    OUT                                        OUT
                                    ---                                        ---
   EVAPOTRANSPIRATION =        3670259.08     EVAPOTRANSPIRATION =          43459.74
           STREAMFLOW =        4322069.80             STREAMFLOW =          81342.55
     GW BOUNDARY FLOW =           7279.06       GW BOUNDARY FLOW =             35.62

   INFLOWS - OUTFLOWS =        5034526.45     INFLOWS - OUTFLOWS =        -124836.79
             --------                                   --------

 TOTAL STORAGE CHANGE =        5038122.25         STORAGE CHANGE =        -124833.09
       --------------                             --------------
         LAND SURFACE =        2540683.31           LAND SURFACE =        -195293.54
            SOIL ZONE =        4557020.68              SOIL ZONE =          61027.18
     UNSATURATED ZONE =       -2877088.65       UNSATURATED ZONE =           9482.23
       SATURATED ZONE =         817506.91         SATURATED ZONE =            -48.97

 OVERALL BUDGET ERROR =          -3595.80           BUDGET ERROR =             -3.70


  PERCENT DISCREPANCY =             -0.03    PERCENT DISCREPANCY =             -0.00



1
 SUMMARY VOLUMETRIC BUDGET FOR GSFLOW 
 DATE: 04 28 1991              CUMULATIVE TIME STEP:      28
 MODFLOW STRESS PERIOD      8     CURRENT TIME STEP:     210     ITERATIONS:       6

 -----------------------------------------------------------------------------------

   CUMULATIVE VOLUMES               L**3   RATES FOR THIS TIME STEP           L**3/T
   ------------------                      ------------------------

                                     IN                                         IN
                                     --                                         --
        PRECIPITATION =        1.3303D+07          PRECIPITATION =                  
           STREAMFLOW =                               STREAMFLOW =                  
     GW BOUNDARY FLOW =             80.25       GW BOUNDARY FLOW =              1.15


                                    OUT                                        OUT
                                    ---                                        ---
   EVAPOTRANSPIRATION =        3917217.14     EVAPOTRANSPIRATION =          55283.23
           STREAMFLOW =        4916022.24             STREAMFLOW =          88546.86
     GW BOUNDARY FLOW =           7528.05       GW BOUNDARY FLOW =             35.55

   INFLOWS - OUTFLOWS =        4462743.32     INFLOWS - OUTFLOWS =        -143864.48
             --------                                   --------

 TOTAL STORAGE CHANGE =        4466358.14         STORAGE CHANGE =        -143862.48
       --------------                             --------------
         LAND SURFACE =        1797938.22           LAND SURFACE =        -152903.02
            SOIL ZONE =        4657499.90              SOIL ZONE =          -1188.17
     UNSATURATED ZONE =       -2808531.05       UNSATURATED ZONE =           9825.05
       SATURATED ZONE =         819451.06         SATURATED ZONE =            403.67

 OVERALL BUDGET ERROR =          -3614.81           BUDGET ERROR =             -2.01


  PERCENT DISCREPANCY =             -0.03    PERCENT DISCREPANCY =             -0.00



1
 SUMMARY VOLUMETRIC BUDGET FOR GSFLOW 
 DATE: 05 05 1991              CUMULATIVE TIME STEP:       5
 MODFLOW STRESS PERIOD      9     CURRENT TIME STEP:     217     ITERATIONS:       7

 -----------------------------------------------------------------------------------

   CUMULATIVE VOLUMES               L**3   RATES FOR THIS TIME STEP           L**3/T
   ------------------                      ------------------------

                                     IN                                         IN
                                     --                                         --
        PRECIPITATION =        1.3510D+07          PRECIPITATION =                  
           STREAMFLOW =                               STREAMFLOW =                  
     GW BOUNDARY FLOW =             88.50       GW BOUNDARY FLOW =              1.20


                                    OUT                                        OUT
                                    ---                                        ---
   EVAPOTRANSPIRATION =        4266286.70     EVAPOTRANSPIRATION =          84817.23
           STREAMFLOW =        5477684.25             STREAMFLOW =          78584.88
     GW BOUNDARY FLOW =           7775.67       GW BOUNDARY FLOW =             35.30

   INFLOWS - OUTFLOWS =        3758050.02     INFLOWS - OUTFLOWS =        -163436.21
             --------                                   --------

 TOTAL STORAGE CHANGE =        3761676.57         STORAGE CHANGE =        -163434.51
       --------------                             --------------
         LAND SURFACE =        1121135.54           LAND SURFACE =        -152852.60
            SOIL ZONE =        4563666.48              SOIL ZONE =         -19773.37
     UNSATURATED ZONE =       -2745877.80       UNSATURATED ZONE =           8650.52
       SATURATED ZONE =         822752.36         SATURATED ZONE =            540.94

 OVERALL BUDGET ERROR =          -3626.55           BUDGET ERROR =             -1.70


  PERCENT DISCREPANCY =             -0.03    PERCENT DISCREPANCY =             -0.00



1
 SUMMARY VOLUMETRIC BUDGET FOR GSFLOW 
 DATE: 05 12 1991              CUMULATIVE TIME STEP:      12
 MODFLOW STRESS PERIOD      9     CURRENT TIME STEP:     224     ITERATIONS:       7

 -----------------------------------------------------------------------------------

   CUMULATIVE VOLUMES               L**3   RATES FOR THIS TIME STEP           L**3/T
   ------------------                      ------------------------

                                     IN                                         IN
                                     --                                         --
        PRECIPITATION =        1.4029D+07          PRECIPITATION =                  
           STREAMFLOW =                               STREAMFLOW =                  
     GW BOUNDARY FLOW =             97.04       GW BOUNDARY FLOW =              1.24


                                    OUT                                        OUT
                                    ---                                        ---
   EVAPOTRANSPIRATION =        4636215.65     EVAPOTRANSPIRATION =          62594.93
           STREAMFLOW =        6018473.80             STREAMFLOW =          70427.70
     GW BOUNDARY FLOW =           8022.00       GW BOUNDARY FLOW =             35.06

   INFLOWS - OUTFLOWS =        3366607.75     INFLOWS - OUTFLOWS =        -133056.46
             --------                                   --------

 TOTAL STORAGE CHANGE =        3370239.99         STORAGE CHANGE =        -133055.98
       --------------                             --------------
         LAND SURFACE =         710447.90           LAND SURFACE =         -96049.30
            SOIL ZONE =        4522544.72              SOIL ZONE =         -44877.70
     UNSATURATED ZONE =       -2693120.60       UNSATURATED ZONE =           6910.73
       SATURATED ZONE =         830367.98         SATURATED ZONE =            960.29

 OVERALL BUDGET ERROR =          -3632.24           BUDGET ERROR =             -0.48


  PERCENT DISCREPANCY =             -0.03    PERCENT DISCREPANCY =             -0.00



1
 SUMMARY VOLUMETRIC BUDGET FOR GSFLOW 
 DATE: 05 19 1991              CUMULATIVE TIME STEP:      19
 MODFLOW STRESS PERIOD      9     CURRENT TIME STEP:     231     ITERATIONS:       6

 -----------------------------------------------------------------------------------

   CUMULATIVE VOLUMES               L**3   RATES FOR THIS TIME STEP           L**3/T
   ------------------                      ------------------------

                                     IN                                         IN
                                     --                                         --
        PRECIPITATION =        1.4365D+07          PRECIPITATION =                  
           STREAMFLOW =                               STREAMFLOW =                  
     GW BOUNDARY FLOW =            105.89       GW BOUNDARY FLOW =              1.28


                                    OUT                                        OUT
                                    ---                                        ---
   EVAPOTRANSPIRATION =        5036324.49     EVAPOTRANSPIRATION =          17977.42
           STREAMFLOW =        6446259.97             STREAMFLOW =          54058.85
     GW BOUNDARY FLOW =           8266.07       GW BOUNDARY FLOW =             34.72

   INFLOWS - OUTFLOWS =        2874633.67     INFLOWS - OUTFLOWS =         -72069.71
             --------                                   --------

 TOTAL STORAGE CHANGE =        2878267.33         STORAGE CHANGE =         -72069.55
       --------------                             --------------
         LAND SURFACE =         410881.33           LAND SURFACE =         -28850.07
            SOIL ZONE =        4285051.66              SOIL ZONE =         -48179.41
     UNSATURATED ZONE =       -2653391.27       UNSATURATED ZONE =           4484.23
       SATURATED ZONE =         835725.61         SATURATED ZONE =            475.69

 OVERALL BUDGET ERROR =          -3633.66           BUDGET ERROR =             -0.16


  PERCENT DISCREPANCY =             -0.03    PERCENT DISCREPANCY =             -0.00



1
 SUMMARY VOLUMETRIC BUDGET FOR GSFLOW 
 DATE: 05 26 1991              CUMULATIVE TIME STEP:      26
 MODFLOW STRESS PERIOD      9     CURRENT TIME STEP:     238     ITERATIONS:       6

 -----------------------------------------------------------------------------------

   CUMULATIVE VOLUMES               L**3   RATES FOR THIS TIME STEP           L**3/T
   ------------------                      ------------------------

                                     IN                                         IN
                                     --                                         --
        PRECIPITATION =        1.4426D+07          PRECIPITATION =                  
           STREAMFLOW =                               STREAMFLOW =                  
     GW BOUNDARY FLOW =            115.04       GW BOUNDARY FLOW =              1.33


                                    OUT                                        OUT
                                    ---                                        ---
   EVAPOTRANSPIRATION =        5683679.87     EVAPOTRANSPIRATION =          71093.69
           STREAMFLOW =        6755327.87             STREAMFLOW =          32125.47
     GW BOUNDARY FLOW =           8507.60       GW BOUNDARY FLOW =             34.27

   INFLOWS - OUTFLOWS =        1979097.31     INFLOWS - OUTFLOWS =        -103252.11
             --------                                   --------

 TOTAL STORAGE CHANGE =        1982732.86         STORAGE CHANGE =        -103250.79
       --------------                             --------------
         LAND SURFACE =         137693.50           LAND SURFACE =         -13707.53
            SOIL ZONE =        3642618.13              SOIL ZONE =         -89484.62
     UNSATURATED ZONE =       -2635582.33       UNSATURATED ZONE =           -109.43
       SATURATED ZONE =         838003.56         SATURATED ZONE =             50.78

 OVERALL BUDGET ERROR =          -3635.55           BUDGET ERROR =             -1.31


  PERCENT DISCREPANCY =             -0.03    PERCENT DISCREPANCY =             -0.00



1
 SUMMARY VOLUMETRIC BUDGET FOR GSFLOW 
 DATE: 06 02 1991              CUMULATIVE TIME STEP:       2
 MODFLOW STRESS PERIOD     10     CURRENT TIME STEP:     245     ITERATIONS:       7

 -----------------------------------------------------------------------------------

   CUMULATIVE VOLUMES               L**3   RATES FOR THIS TIME STEP           L**3/T
   ------------------                      ------------------------

                                     IN                                         IN
                                     --                                         --
        PRECIPITATION =        1.4671D+07          PRECIPITATION =                  
           STREAMFLOW =                               STREAMFLOW =                  
     GW BOUNDARY FLOW =            124.49       GW BOUNDARY FLOW =              1.37


                                    OUT                                        OUT
                                    ---                                        ---
   EVAPOTRANSPIRATION =        6228626.54     EVAPOTRANSPIRATION =         119396.93
           STREAMFLOW =        6976487.16             STREAMFLOW =          27161.23
     GW BOUNDARY FLOW =           8746.84       GW BOUNDARY FLOW =             34.04

   INFLOWS - OUTFLOWS =        1457238.75     INFLOWS - OUTFLOWS =        -146590.83
             --------                                   --------

 TOTAL STORAGE CHANGE =        1460890.75         STORAGE CHANGE =        -146588.32
       --------------                             --------------
         LAND SURFACE =          65228.73           LAND SURFACE =         -11414.61
            SOIL ZONE =        3207099.53              SOIL ZONE =        -132046.22
     UNSATURATED ZONE =       -2648161.22       UNSATURATED ZONE =          -2714.98
       SATURATED ZONE =         836723.71         SATURATED ZONE =           -412.51

 OVERALL BUDGET ERROR =          -3652.01           BUDGET ERROR =             -2.51


  PERCENT DISCREPANCY =             -0.02    PERCENT DISCREPANCY =             -0.00



1
 SUMMARY VOLUMETRIC BUDGET FOR GSFLOW 
 DATE: 06 09 1991              CUMULATIVE TIME STEP:       9
 MODFLOW STRESS PERIOD     10     CURRENT TIME STEP:     252     ITERATIONS:       6

 -----------------------------------------------------------------------------------

   CUMULATIVE VOLUMES               L**3   RATES FOR THIS TIME STEP           L**3/T
   ------------------                      ------------------------

                                     IN                                         IN
                                     --                                         --
        PRECIPITATION =        1.4671D+07          PRECIPITATION =                  
           STREAMFLOW =                               STREAMFLOW =                  
     GW BOUNDARY FLOW =            134.25       GW BOUNDARY FLOW =              1.41


                                    OUT                                        OUT
                                    ---                                        ---
   EVAPOTRANSPIRATION =        6945036.26     EVAPOTRANSPIRATION =         166531.68
           STREAMFLOW =        7136430.02             STREAMFLOW =          19418.07
     GW BOUNDARY FLOW =           8983.93       GW BOUNDARY FLOW =             33.74

   INFLOWS - OUTFLOWS =         580658.84     INFLOWS - OUTFLOWS =        -185982.08
             --------                                   --------

 TOTAL STORAGE CHANGE =         584344.14         STORAGE CHANGE =        -185975.04
       --------------                             --------------
         LAND SURFACE =          17498.47           LAND SURFACE =          -7585.85
            SOIL ZONE =        2418093.28              SOIL ZONE =        -171031.88
     UNSATURATED ZONE =       -2681118.65       UNSATURATED ZONE =          -5872.44
       SATURATED ZONE =         829871.05         SATURATED ZONE =          -1484.87

 OVERALL BUDGET ERROR =          -3685.30           BUDGET ERROR =             -7.03


  PERCENT DISCREPANCY =             -0.03    PERCENT DISCREPANCY =             -0.00



1
 SUMMARY VOLUMETRIC BUDGET FOR GSFLOW 
 DATE: 06 16 1991              CUMULATIVE TIME STEP:      16
 MODFLOW STRESS PERIOD     10     CURRENT TIME STEP:     259     ITERATIONS:       6

 -----------------------------------------------------------------------------------

   CUMULATIVE VOLUMES               L**3   RATES FOR THIS TIME STEP           L**3/T
   ------------------                      ------------------------

                                     IN                                         IN
                                     --                                         --
        PRECIPITATION =        1.4671D+07          PRECIPITATION =                  
           STREAMFLOW =                               STREAMFLOW =                  
     GW BOUNDARY FLOW =            144.31       GW BOUNDARY FLOW =              1.46


                                    OUT                                        OUT
                                    ---                                        ---
   EVAPOTRANSPIRATION =        7902540.63     EVAPOTRANSPIRATION =         107699.83
           STREAMFLOW =        7257452.69             STREAMFLOW =          16692.61
     GW BOUNDARY FLOW =           9219.18       GW BOUNDARY FLOW =             33.53

   INFLOWS - OUTFLOWS =        -498093.38     INFLOWS - OUTFLOWS =        -124424.51
             --------                                   --------

 TOTAL STORAGE CHANGE =        -494346.66         STORAGE CHANGE =        -124415.27
       --------------                             --------------
         LAND SURFACE =            705.51           LAND SURFACE =           -399.79
            SOIL ZONE =        1448486.34              SOIL ZONE =        -106703.58
     UNSATURATED ZONE =       -2757901.88       UNSATURATED ZONE =         -14359.96
       SATURATED ZONE =         814363.38         SATURATED ZONE =          -2951.95

 OVERALL BUDGET ERROR =          -3746.72           BUDGET ERROR =             -9.24


  PERCENT DISCREPANCY =             -0.02    PERCENT DISCREPANCY =             -0.01



1
 SUMMARY VOLUMETRIC BUDGET FOR GSFLOW 
 DATE: 06 23 1991              CUMULATIVE TIME STEP:      23
 MODFLOW STRESS PERIOD     10     CURRENT TIME STEP:     266     ITERATIONS:       5

 -----------------------------------------------------------------------------------

   CUMULATIVE VOLUMES               L**3   RATES FOR THIS TIME STEP           L**3/T
   ------------------                      ------------------------

                                     IN                                         IN
                                     --                                         --
        PRECIPITATION =        1.4671D+07          PRECIPITATION =                  
           STREAMFLOW =                               STREAMFLOW =                  
     GW BOUNDARY FLOW =            154.61       GW BOUNDARY FLOW =              1.46


                                    OUT                                        OUT
                                    ---                                        ---
   EVAPOTRANSPIRATION =        8374300.02     EVAPOTRANSPIRATION =          33677.92
           STREAMFLOW =        7370853.07             STREAMFLOW =          15937.62
     GW BOUNDARY FLOW =           9453.23       GW BOUNDARY FLOW =             33.37

   INFLOWS - OUTFLOWS =       -1083476.91     INFLOWS - OUTFLOWS =         -49647.46
             --------                                   --------

 TOTAL STORAGE CHANGE =       -1079634.66         STORAGE CHANGE =         -49630.00
       --------------                             --------------
         LAND SURFACE =             27.33           LAND SURFACE =             -3.89
            SOIL ZONE =         988986.64              SOIL ZONE =         -33708.13
     UNSATURATED ZONE =       -2855576.06       UNSATURATED ZONE =         -11757.34
       SATURATED ZONE =         786927.43         SATURATED ZONE =          -4160.64

 OVERALL BUDGET ERROR =          -3842.25           BUDGET ERROR =            -17.46


  PERCENT DISCREPANCY =             -0.02    PERCENT DISCREPANCY =             -0.04



1
 SUMMARY VOLUMETRIC BUDGET FOR GSFLOW 
 DATE: 06 30 1991              CUMULATIVE TIME STEP:      30
 MODFLOW STRESS PERIOD     10     CURRENT TIME STEP:     273     ITERATIONS:       5

 -----------------------------------------------------------------------------------

   CUMULATIVE VOLUMES               L**3   RATES FOR THIS TIME STEP           L**3/T
   ------------------                      ------------------------

                                     IN                                         IN
[...]
                                    ---                                        ---
   EVAPOTRANSPIRATION =        1.4263D+08     EVAPOTRANSPIRATION =          15498.94
           STREAMFLOW =        1.2292D+08             STREAMFLOW =            519.51
     GW BOUNDARY FLOW =          95503.64       GW BOUNDARY FLOW =             21.63

   INFLOWS - OUTFLOWS =       -2.5633D+07     INFLOWS - OUTFLOWS =         -16033.90
             --------                                   --------

 TOTAL STORAGE CHANGE =       -2.5616D+07         STORAGE CHANGE =         -16034.27
       --------------                             --------------
         LAND SURFACE =                             LAND SURFACE =                  
            SOIL ZONE =       -1968569.20              SOIL ZONE =          -2003.61
     UNSATURATED ZONE =         357953.71       UNSATURATED ZONE =          -1678.11
       SATURATED ZONE =       -2.4005D+07         SATURATED ZONE =         -12352.54

 OVERALL BUDGET ERROR =         -17453.13           BUDGET ERROR =              0.37


  PERCENT DISCREPANCY =             -0.01    PERCENT DISCREPANCY =              0.00



1
 SUMMARY VOLUMETRIC BUDGET FOR GSFLOW 
 DATE: 09 03 2000              CUMULATIVE TIME STEP:       2
 MODFLOW STRESS PERIOD    121     CURRENT TIME STEP:    3626     ITERATIONS:       8

 -----------------------------------------------------------------------------------

   CUMULATIVE VOLUMES               L**3   RATES FOR THIS TIME STEP           L**3/T
   ------------------                      ------------------------

                                     IN                                         IN
                                     --                                         --
        PRECIPITATION =        2.4013D+08          PRECIPITATION =                  
           STREAMFLOW =                               STREAMFLOW =                  
     GW BOUNDARY FLOW =          14954.96       GW BOUNDARY FLOW =              6.19


                                    OUT                                        OUT
                                    ---                                        ---
   EVAPOTRANSPIRATION =        1.4272D+08     EVAPOTRANSPIRATION =          28557.94
           STREAMFLOW =        1.2295D+08             STREAMFLOW =           6662.83
     GW BOUNDARY FLOW =          95657.19       GW BOUNDARY FLOW =             22.20

   INFLOWS - OUTFLOWS =       -2.5615D+07     INFLOWS - OUTFLOWS =         -35236.78
             --------                                   --------

 TOTAL STORAGE CHANGE =       -2.5598D+07         STORAGE CHANGE =         -35237.39
       --------------                             --------------
         LAND SURFACE =           8198.00           LAND SURFACE =         -28500.39
            SOIL ZONE =       -1886591.29              SOIL ZONE =             -1.44
     UNSATURATED ZONE =         346184.78       UNSATURATED ZONE =          -1629.36
       SATURATED ZONE =       -2.4066D+07         SATURATED ZONE =          -5106.20

 OVERALL BUDGET ERROR =         -17455.89           BUDGET ERROR =              0.61


  PERCENT DISCREPANCY =             -0.01    PERCENT DISCREPANCY =              0.00



1
 SUMMARY VOLUMETRIC BUDGET FOR GSFLOW 
 DATE: 09 10 2000              CUMULATIVE TIME STEP:       9
 MODFLOW STRESS PERIOD    121     CURRENT TIME STEP:    3633     ITERATIONS:      13

 -----------------------------------------------------------------------------------

   CUMULATIVE VOLUMES               L**3   RATES FOR THIS TIME STEP           L**3/T
   ------------------                      ------------------------

                                     IN                                         IN
                                     --                                         --
        PRECIPITATION =        2.4013D+08          PRECIPITATION =                  
           STREAMFLOW =                               STREAMFLOW =                  
     GW BOUNDARY FLOW =          14998.31       GW BOUNDARY FLOW =              6.19


                                    OUT                                        OUT
                                    ---                                        ---
   EVAPOTRANSPIRATION =        1.4280D+08     EVAPOTRANSPIRATION =          10776.16
           STREAMFLOW =        1.2298D+08             STREAMFLOW =           4501.88
     GW BOUNDARY FLOW =          95811.23       GW BOUNDARY FLOW =             21.98

   INFLOWS - OUTFLOWS =       -2.5733D+07     INFLOWS - OUTFLOWS =         -15293.82
             --------                                   --------

 TOTAL STORAGE CHANGE =       -2.5716D+07         STORAGE CHANGE =         -15293.11
       --------------                             --------------
         LAND SURFACE =                             LAND SURFACE =                  
            SOIL ZONE =       -1922487.93              SOIL ZONE =          -4565.36
     UNSATURATED ZONE =         334275.00       UNSATURATED ZONE =          -1715.23
       SATURATED ZONE =       -2.4128D+07         SATURATED ZONE =          -9012.51

 OVERALL BUDGET ERROR =         -17462.69           BUDGET ERROR =             -0.72


  PERCENT DISCREPANCY =             -0.01    PERCENT DISCREPANCY =             -0.00



1
 SUMMARY VOLUMETRIC BUDGET FOR GSFLOW 
 DATE: 09 17 2000              CUMULATIVE TIME STEP:      16
 MODFLOW STRESS PERIOD    121     CURRENT TIME STEP:    3640     ITERATIONS:       7

 -----------------------------------------------------------------------------------

   CUMULATIVE VOLUMES               L**3   RATES FOR THIS TIME STEP           L**3/T
   ------------------                      ------------------------

                                     IN                                         IN
                                     --                                         --
        PRECIPITATION =        2.4013D+08          PRECIPITATION =                  
           STREAMFLOW =                               STREAMFLOW =                  
     GW BOUNDARY FLOW =          15041.70       GW BOUNDARY FLOW =              6.20


                                    OUT                                        OUT
                                    ---                                        ---
   EVAPOTRANSPIRATION =        1.4288D+08     EVAPOTRANSPIRATION =          10706.25
           STREAMFLOW =        1.2301D+08             STREAMFLOW =           4201.38
     GW BOUNDARY FLOW =          95964.66       GW BOUNDARY FLOW =             21.93

   INFLOWS - OUTFLOWS =       -2.5846D+07     INFLOWS - OUTFLOWS =         -14923.36
             --------                                   --------

 TOTAL STORAGE CHANGE =       -2.5829D+07         STORAGE CHANGE =         -14921.94
       --------------                             --------------
         LAND SURFACE =                             LAND SURFACE =                  
            SOIL ZONE =       -1952028.80              SOIL ZONE =          -3143.59
     UNSATURATED ZONE =         322577.67       UNSATURATED ZONE =          -1661.55
       SATURATED ZONE =       -2.4199D+07         SATURATED ZONE =         -10116.79

 OVERALL BUDGET ERROR =         -17465.74           BUDGET ERROR =             -1.42


  PERCENT DISCREPANCY =             -0.01    PERCENT DISCREPANCY =             -0.01



1
 SUMMARY VOLUMETRIC BUDGET FOR GSFLOW 
 DATE: 09 24 2000              CUMULATIVE TIME STEP:      23
 MODFLOW STRESS PERIOD    121     CURRENT TIME STEP:    3647     ITERATIONS:       4

 -----------------------------------------------------------------------------------

   CUMULATIVE VOLUMES               L**3   RATES FOR THIS TIME STEP           L**3/T
   ------------------                      ------------------------

                                     IN                                         IN
                                     --                                         --
        PRECIPITATION =        2.4013D+08          PRECIPITATION =                  
           STREAMFLOW =                               STREAMFLOW =                  
     GW BOUNDARY FLOW =          15085.13       GW BOUNDARY FLOW =              6.21


                                    OUT                                        OUT
                                    ---                                        ---
   EVAPOTRANSPIRATION =        1.4294D+08     EVAPOTRANSPIRATION =           5224.45
           STREAMFLOW =        1.2304D+08             STREAMFLOW =           5429.10
     GW BOUNDARY FLOW =          96118.51       GW BOUNDARY FLOW =             22.06

   INFLOWS - OUTFLOWS =       -2.5936D+07     INFLOWS - OUTFLOWS =         -10669.41
             --------                                   --------

 TOTAL STORAGE CHANGE =       -2.5918D+07         STORAGE CHANGE =         -10652.22
       --------------                             --------------
         LAND SURFACE =                             LAND SURFACE =                  
            SOIL ZONE =       -1966115.98              SOIL ZONE =          -1135.72
     UNSATURATED ZONE =         311355.81       UNSATURATED ZONE =          -1574.62
       SATURATED ZONE =       -2.4264D+07         SATURATED ZONE =          -7941.88

 OVERALL BUDGET ERROR =         -17485.56           BUDGET ERROR =            -17.19


  PERCENT DISCREPANCY =             -0.01    PERCENT DISCREPANCY =             -0.16



1
 SUMMARY VOLUMETRIC BUDGET FOR GSFLOW 
 DATE: 10 01 2000              CUMULATIVE TIME STEP:      30
 MODFLOW STRESS PERIOD    121     CURRENT TIME STEP:    3654     ITERATIONS:       7

 -----------------------------------------------------------------------------------

   CUMULATIVE VOLUMES               L**3   RATES FOR THIS TIME STEP           L**3/T
   ------------------                      ------------------------

                                     IN                                         IN
                                     --                                         --
        PRECIPITATION =        2.4013D+08          PRECIPITATION =                  
           STREAMFLOW =                               STREAMFLOW =                  
     GW BOUNDARY FLOW =          15128.61       GW BOUNDARY FLOW =              6.21


                                    OUT                                        OUT
                                    ---                                        ---
   EVAPOTRANSPIRATION =        1.4300D+08     EVAPOTRANSPIRATION =           8421.86
           STREAMFLOW =        1.2307D+08             STREAMFLOW =           4501.55
     GW BOUNDARY FLOW =          96272.26       GW BOUNDARY FLOW =             21.96

   INFLOWS - OUTFLOWS =       -2.6028D+07     INFLOWS - OUTFLOWS =         -12939.15
             --------                                   --------

 TOTAL STORAGE CHANGE =       -2.6011D+07         STORAGE CHANGE =         -12939.53
       --------------                             --------------
         LAND SURFACE =                             LAND SURFACE =                  
            SOIL ZONE =       -1978866.65              SOIL ZONE =          -1682.31
     UNSATURATED ZONE =         299670.31       UNSATURATED ZONE =          -1628.81
       SATURATED ZONE =       -2.4332D+07         SATURATED ZONE =          -9628.41

 OVERALL BUDGET ERROR =         -17488.82           BUDGET ERROR =              0.38


  PERCENT DISCREPANCY =             -0.01    PERCENT DISCREPANCY =              0.00



1
 SUMMARY VOLUMETRIC BUDGET FOR GSFLOW 
 DATE: 10 08 2000              CUMULATIVE TIME STEP:       7
 MODFLOW STRESS PERIOD    122     CURRENT TIME STEP:    3661     ITERATIONS:       4

 -----------------------------------------------------------------------------------

   CUMULATIVE VOLUMES               L**3   RATES FOR THIS TIME STEP           L**3/T
   ------------------                      ------------------------

                                     IN                                         IN
                                     --                                         --
        PRECIPITATION =        2.4013D+08          PRECIPITATION =                  
           STREAMFLOW =                               STREAMFLOW =                  
     GW BOUNDARY FLOW =          15172.14       GW BOUNDARY FLOW =              6.22


                                    OUT                                        OUT
                                    ---                                        ---
   EVAPOTRANSPIRATION =        1.4305D+08     EVAPOTRANSPIRATION =           7067.79
           STREAMFLOW =        1.2311D+08             STREAMFLOW =           4900.71
     GW BOUNDARY FLOW =          96426.21       GW BOUNDARY FLOW =             22.00

   INFLOWS - OUTFLOWS =       -2.6113D+07     INFLOWS - OUTFLOWS =         -11984.28
             --------                                   --------

 TOTAL STORAGE CHANGE =       -2.6096D+07         STORAGE CHANGE =         -11966.71
       --------------                             --------------
         LAND SURFACE =                             LAND SURFACE =                  
            SOIL ZONE =       -1988468.68              SOIL ZONE =          -1266.24
     UNSATURATED ZONE =         288430.01       UNSATURATED ZONE =          -1621.09
       SATURATED ZONE =       -2.4396D+07         SATURATED ZONE =          -9079.38

 OVERALL BUDGET ERROR =         -17507.84           BUDGET ERROR =            -17.57


  PERCENT DISCREPANCY =             -0.01    PERCENT DISCREPANCY =             -0.15



1
 SUMMARY VOLUMETRIC BUDGET FOR GSFLOW 
 DATE: 10 15 2000              CUMULATIVE TIME STEP:      14
 MODFLOW STRESS PERIOD    122     CURRENT TIME STEP:    3668     ITERATIONS:       4

 -----------------------------------------------------------------------------------

   CUMULATIVE VOLUMES               L**3   RATES FOR THIS TIME STEP           L**3/T
   ------------------                      ------------------------

                                     IN                                         IN
                                     --                                         --
        PRECIPITATION =        2.4034D+08          PRECIPITATION =                  
           STREAMFLOW =                               STREAMFLOW =                  
     GW BOUNDARY FLOW =          15215.69       GW BOUNDARY FLOW =              6.22


                                    OUT                                        OUT
                                    ---                                        ---
   EVAPOTRANSPIRATION =        1.4311D+08     EVAPOTRANSPIRATION =           7502.09
           STREAMFLOW =        1.2316D+08             STREAMFLOW =           6241.56
     GW BOUNDARY FLOW =          96581.61       GW BOUNDARY FLOW =             22.16

   INFLOWS - OUTFLOWS =       -2.6004D+07     INFLOWS - OUTFLOWS =         -13759.59
             --------                                   --------

 TOTAL STORAGE CHANGE =       -2.5987D+07         STORAGE CHANGE =         -13742.35
       --------------                             --------------
         LAND SURFACE =             11.88           LAND SURFACE =            -60.12
            SOIL ZONE =       -1824475.66              SOIL ZONE =          -4852.27
     UNSATURATED ZONE =         277118.78       UNSATURATED ZONE =          -1638.49
       SATURATED ZONE =       -2.4439D+07         SATURATED ZONE =          -7191.47

 OVERALL BUDGET ERROR =         -17536.85           BUDGET ERROR =            -17.24


  PERCENT DISCREPANCY =             -0.01    PERCENT DISCREPANCY =             -0.13



1
 SUMMARY VOLUMETRIC BUDGET FOR GSFLOW 
 DATE: 10 22 2000              CUMULATIVE TIME STEP:      21
 MODFLOW STRESS PERIOD    122     CURRENT TIME STEP:    3675     ITERATIONS:       5

 -----------------------------------------------------------------------------------

   CUMULATIVE VOLUMES               L**3   RATES FOR THIS TIME STEP           L**3/T
   ------------------                      ------------------------

                                     IN                                         IN
                                     --                                         --
        PRECIPITATION =        2.4039D+08          PRECIPITATION =                  
           STREAMFLOW =                               STREAMFLOW =                  
     GW BOUNDARY FLOW =          15259.29       GW BOUNDARY FLOW =              6.23


                                    OUT                                        OUT
                                    ---                                        ---
   EVAPOTRANSPIRATION =        1.4317D+08     EVAPOTRANSPIRATION =           8693.71
           STREAMFLOW =        1.2320D+08             STREAMFLOW =           7213.38
     GW BOUNDARY FLOW =          96736.94       GW BOUNDARY FLOW =             22.29

   INFLOWS - OUTFLOWS =       -2.6062D+07     INFLOWS - OUTFLOWS =         -15923.15
             --------                                   --------

 TOTAL STORAGE CHANGE =       -2.6044D+07         STORAGE CHANGE =         -15918.44
       --------------                             --------------
         LAND SURFACE =          14940.20           LAND SURFACE =          -8673.07
            SOIL ZONE =       -1836398.76              SOIL ZONE =             33.18
     UNSATURATED ZONE =         265977.28       UNSATURATED ZONE =          -1494.56
       SATURATED ZONE =       -2.4489D+07         SATURATED ZONE =          -5783.98

 OVERALL BUDGET ERROR =         -17566.43           BUDGET ERROR =             -4.71


  PERCENT DISCREPANCY =             -0.01    PERCENT DISCREPANCY =             -0.03



1
 SUMMARY VOLUMETRIC BUDGET FOR GSFLOW 
 DATE: 10 29 2000              CUMULATIVE TIME STEP:      28
 MODFLOW STRESS PERIOD    122     CURRENT TIME STEP:    3682     ITERATIONS:       5

 -----------------------------------------------------------------------------------

   CUMULATIVE VOLUMES               L**3   RATES FOR THIS TIME STEP           L**3/T
   ------------------                      ------------------------

                                     IN                                         IN
                                     --                                         --
        PRECIPITATION =        2.4111D+08          PRECIPITATION =          24578.20
           STREAMFLOW =                               STREAMFLOW =                  
     GW BOUNDARY FLOW =          15302.91       GW BOUNDARY FLOW =              6.23


                                    OUT                                        OUT
                                    ---                                        ---
   EVAPOTRANSPIRATION =        1.4321D+08     EVAPOTRANSPIRATION =           4121.05
           STREAMFLOW =        1.2325D+08             STREAMFLOW =           7203.81
     GW BOUNDARY FLOW =          96892.92       GW BOUNDARY FLOW =             22.32

   INFLOWS - OUTFLOWS =       -2.5429D+07     INFLOWS - OUTFLOWS =          13237.25
             --------                                   --------

 TOTAL STORAGE CHANGE =       -2.5411D+07         STORAGE CHANGE =          13241.87
       --------------                             --------------
         LAND SURFACE =         498945.50           LAND SURFACE =          15332.79
            SOIL ZONE =       -1633099.06              SOIL ZONE =           5405.79
     UNSATURATED ZONE =         254970.64       UNSATURATED ZONE =          -1583.47
       SATURATED ZONE =       -2.4532D+07         SATURATED ZONE =          -5913.23

 OVERALL BUDGET ERROR =         -17587.94           BUDGET ERROR =             -4.62


  PERCENT DISCREPANCY =             -0.01    PERCENT DISCREPANCY =             -0.02



