1
 SUMMARY VOLUMETRIC BUDGET FOR GSFLOW 
 DATE: 10 07 1990              CUMULATIVE TIME STEP:       7
 MODFLOW STRESS PERIOD      2     CURRENT TIME STEP:       7     ITERATIONS:       9

 -----------------------------------------------------------------------------------

   CUMULATIVE VOLUMES               L**3   RATES FOR THIS TIME STEP           L**3/T
   ------------------                      ------------------------

                                     IN                                         IN
                                     --                                         --
        PRECIPITATION =                            PRECIPITATION =                  
           STREAMFLOW =                               STREAMFLOW =                  
     GW BOUNDARY FLOW =                         GW BOUNDARY FLOW =                  


                                    OUT                                        OUT
                                    ---                                        ---
   EVAPOTRANSPIRATION =         394929.33     EVAPOTRANSPIRATION =          13151.70
           STREAMFLOW =          57572.36             STREAMFLOW =           9068.24
     GW BOUNDARY FLOW =            253.94       GW BOUNDARY FLOW =             36.37

   INFLOWS - OUTFLOWS =        -452755.63     INFLOWS - OUTFLOWS =         -22256.31
             --------                                   --------

 TOTAL STORAGE CHANGE =        -451969.24         STORAGE CHANGE =         -22194.65
       --------------                             --------------
         LAND SURFACE =                             LAND SURFACE =                  
            SOIL ZONE =        -365817.89              SOIL ZONE =          -8150.36
     UNSATURATED ZONE =        -239451.23       UNSATURATED ZONE =         -32083.05
       SATURATED ZONE =         153299.88         SATURATED ZONE =          18038.76

 OVERALL BUDGET ERROR =           -786.39           BUDGET ERROR =            -61.66


  PERCENT DISCREPANCY =             -0.17    PERCENT DISCREPANCY =             -0.28



1
 SUMMARY VOLUMETRIC BUDGET FOR GSFLOW 
 DATE: 10 14 1990              CUMULATIVE TIME STEP:      14
 MODFLOW STRESS PERIOD      2     CURRENT TIME STEP:      14     ITERATIONS:       6

 -----------------------------------------------------------------------------------

   CUMULATIVE VOLUMES               L**3   RATES FOR THIS TIME STEP           L**3/T
   ------------------                      ------------------------

                                     IN                                         IN
                                     --                                         --
        PRECIPITATION =                            PRECIPITATION =                  
           STREAMFLOW =                               STREAMFLOW =                  
     GW BOUNDARY FLOW =                         GW BOUNDARY FLOW =                  


                                    OUT                                        OUT
                                    ---                                        ---
   EVAPOTRANSPIRATION =         715986.60     EVAPOTRANSPIRATION =          59026.90
           STREAMFLOW =         119511.61             STREAMFLOW =           8963.37
     GW BOUNDARY FLOW =            508.52       GW BOUNDARY FLOW =             36.39

   INFLOWS - OUTFLOWS =        -836006.73     INFLOWS - OUTFLOWS =         -68026.65
             --------                                   --------

 TOTAL STORAGE CHANGE =        -834776.46         STORAGE CHANGE =         -67973.26
       --------------                             --------------
         LAND SURFACE =                             LAND SURFACE =                  
            SOIL ZONE =        -553736.54              SOIL ZONE =         -34181.58
     UNSATURATED ZONE =        -530714.08       UNSATURATED ZONE =         -45158.27
       SATURATED ZONE =         249674.16         SATURATED ZONE =          11366.59

 OVERALL BUDGET ERROR =          -1230.27           BUDGET ERROR =            -53.39


  PERCENT DISCREPANCY =             -0.15    PERCENT DISCREPANCY =             -0.08



1
 SUMMARY VOLUMETRIC BUDGET FOR GSFLOW 
 DATE: 10 21 1990              CUMULATIVE TIME STEP:      21
 MODFLOW STRESS PERIOD      2     CURRENT TIME STEP:      21     ITERATIONS:       6

 -----------------------------------------------------------------------------------

   CUMULATIVE VOLUMES               L**3   RATES FOR THIS TIME STEP           L**3/T
   ------------------                      ------------------------

                                     IN                                         IN
                                     --                                         --
        PRECIPITATION =         188432.87          PRECIPITATION =                  
           STREAMFLOW =                               STREAMFLOW =                  
     GW BOUNDARY FLOW =                         GW BOUNDARY FLOW =                  


                                    OUT                                        OUT
                                    ---                                        ---
   EVAPOTRANSPIRATION =         928289.20     EVAPOTRANSPIRATION =          39716.48
           STREAMFLOW =         187648.34             STREAMFLOW =          10077.00
     GW BOUNDARY FLOW =            763.72       GW BOUNDARY FLOW =             36.47

   INFLOWS - OUTFLOWS =        -928268.39     INFLOWS - OUTFLOWS =         -49829.95
             --------                                   --------

 TOTAL STORAGE CHANGE =        -926775.74         STORAGE CHANGE =         -49800.13
       --------------                             --------------
         LAND SURFACE =           4395.42           LAND SURFACE =         -25675.32
            SOIL ZONE =        -504238.54              SOIL ZONE =          -7586.28
     UNSATURATED ZONE =        -758228.37       UNSATURATED ZONE =         -28276.11
       SATURATED ZONE =         331295.75         SATURATED ZONE =          11737.59

 OVERALL BUDGET ERROR =          -1492.65           BUDGET ERROR =            -29.82


  PERCENT DISCREPANCY =             -0.13    PERCENT DISCREPANCY =             -0.06



1
 SUMMARY VOLUMETRIC BUDGET FOR GSFLOW 
 DATE: 10 28 1990              CUMULATIVE TIME STEP:      28
 MODFLOW STRESS PERIOD      2     CURRENT TIME STEP:      28     ITERATIONS:       6

 -----------------------------------------------------------------------------------

   CUMULATIVE VOLUMES               L**3   RATES FOR THIS TIME STEP           L**3/T
   ------------------                      ------------------------

                                     IN                                         IN
                                     --                                         --
        PRECIPITATION =         188432.87          PRECIPITATION =                  
           STREAMFLOW =                               STREAMFLOW =                  
     GW BOUNDARY FLOW =                         GW BOUNDARY FLOW =                  


                                    OUT                                        OUT
                                    ---                                        ---
   EVAPOTRANSPIRATION =        1194097.39     EVAPOTRANSPIRATION =          27729.33
           STREAMFLOW =         255303.20             STREAMFLOW =           9835.06
     GW BOUNDARY FLOW =           1018.45       GW BOUNDARY FLOW =             36.36

   INFLOWS - OUTFLOWS =       -1261986.17     INFLOWS - OUTFLOWS =         -37600.76
             --------                                   --------

 TOTAL STORAGE CHANGE =       -1260276.99         STORAGE CHANGE =         -37573.77
       --------------                             --------------
         LAND SURFACE =                             LAND SURFACE =                  
            SOIL ZONE =        -668143.88              SOIL ZONE =         -18191.26
     UNSATURATED ZONE =        -989133.56       UNSATURATED ZONE =         -28518.21
       SATURATED ZONE =         397000.46         SATURATED ZONE =           9135.69

 OVERALL BUDGET ERROR =          -1709.18           BUDGET ERROR =            -26.99


  PERCENT DISCREPANCY =             -0.12    PERCENT DISCREPANCY =             -0.07



1
 SUMMARY VOLUMETRIC BUDGET FOR GSFLOW 
 DATE: 11 04 1990              CUMULATIVE TIME STEP:       4
 MODFLOW STRESS PERIOD      3     CURRENT TIME STEP:      35     ITERATIONS:       6

 -----------------------------------------------------------------------------------

   CUMULATIVE VOLUMES               L**3   RATES FOR THIS TIME STEP           L**3/T
   ------------------                      ------------------------

                                     IN                                         IN
                                     --                                         --
        PRECIPITATION =         703113.06          PRECIPITATION =                  
           STREAMFLOW =                               STREAMFLOW =                  
     GW BOUNDARY FLOW =                         GW BOUNDARY FLOW =                  


                                    OUT                                        OUT
                                    ---                                        ---
   EVAPOTRANSPIRATION =        1286053.78     EVAPOTRANSPIRATION =          26232.94
           STREAMFLOW =         329002.69             STREAMFLOW =          10796.72
     GW BOUNDARY FLOW =           1273.01       GW BOUNDARY FLOW =             36.35

   INFLOWS - OUTFLOWS =        -913216.42     INFLOWS - OUTFLOWS =         -37066.01
             --------                                   --------

 TOTAL STORAGE CHANGE =        -911356.82         STORAGE CHANGE =         -37048.27
       --------------                             --------------
         LAND SURFACE =          36990.26           LAND SURFACE =         -34939.93
            SOIL ZONE =        -268411.37              SOIL ZONE =           8813.46
     UNSATURATED ZONE =       -1149588.02       UNSATURATED ZONE =         -21500.47
       SATURATED ZONE =         469652.31         SATURATED ZONE =          10578.67

 OVERALL BUDGET ERROR =          -1859.61           BUDGET ERROR =            -17.74


  PERCENT DISCREPANCY =             -0.12    PERCENT DISCREPANCY =             -0.05



1
 SUMMARY VOLUMETRIC BUDGET FOR GSFLOW 
 DATE: 11 11 1990              CUMULATIVE TIME STEP:      11
 MODFLOW STRESS PERIOD      3     CURRENT TIME STEP:      42     ITERATIONS:       6

 -----------------------------------------------------------------------------------

   CUMULATIVE VOLUMES               L**3   RATES FOR THIS TIME STEP           L**3/T
   ------------------                      ------------------------

                                     IN                                         IN
                                     --                                         --
        PRECIPITATION =         703113.06          PRECIPITATION =                  
           STREAMFLOW =                               STREAMFLOW =                  
     GW BOUNDARY FLOW =                         GW BOUNDARY FLOW =                  


                                    OUT                                        OUT
                                    ---                                        ---
   EVAPOTRANSPIRATION =        1423656.41     EVAPOTRANSPIRATION =          27713.87
           STREAMFLOW =         404629.92             STREAMFLOW =          10686.04
     GW BOUNDARY FLOW =           1526.92       GW BOUNDARY FLOW =             36.20

   INFLOWS - OUTFLOWS =       -1126700.19     INFLOWS - OUTFLOWS =         -38436.11
             --------                                   --------

 TOTAL STORAGE CHANGE =       -1124721.94         STORAGE CHANGE =         -38420.11
       --------------                             --------------
         LAND SURFACE =            195.77           LAND SURFACE =           -519.43
            SOIL ZONE =        -364629.74              SOIL ZONE =         -25353.88
     UNSATURATED ZONE =       -1297665.90       UNSATURATED ZONE =         -21088.83
       SATURATED ZONE =         537377.93         SATURATED ZONE =           8542.02

 OVERALL BUDGET ERROR =          -1978.25           BUDGET ERROR =            -15.99


  PERCENT DISCREPANCY =             -0.11    PERCENT DISCREPANCY =             -0.04



1
 SUMMARY VOLUMETRIC BUDGET FOR GSFLOW 
 DATE: 11 18 1990              CUMULATIVE TIME STEP:      18
 MODFLOW STRESS PERIOD      3     CURRENT TIME STEP:      49     ITERATIONS:       6

 -----------------------------------------------------------------------------------

   CUMULATIVE VOLUMES               L**3   RATES FOR THIS TIME STEP           L**3/T
   ------------------                      ------------------------

                                     IN                                         IN
                                     --                                         --
        PRECIPITATION =         747883.35          PRECIPITATION =                  
           STREAMFLOW =                               STREAMFLOW =                  
     GW BOUNDARY FLOW =                         GW BOUNDARY FLOW =                  


                                    OUT                                        OUT
                                    ---                                        ---
   EVAPOTRANSPIRATION =        1535174.41     EVAPOTRANSPIRATION =           6032.29
           STREAMFLOW =         480229.29             STREAMFLOW =          10939.88
     GW BOUNDARY FLOW =           1779.95       GW BOUNDARY FLOW =             36.11

   INFLOWS - OUTFLOWS =       -1269300.30     INFLOWS - OUTFLOWS =         -17008.29
             --------                                   --------

 TOTAL STORAGE CHANGE =       -1267218.25         STORAGE CHANGE =         -16994.12
       --------------                             --------------
         LAND SURFACE =           5912.97           LAND SURFACE =          -3365.44
            SOIL ZONE =        -426037.40              SOIL ZONE =          -1819.69
     UNSATURATED ZONE =       -1442076.47       UNSATURATED ZONE =         -19998.67
       SATURATED ZONE =         594982.65         SATURATED ZONE =           8189.68

 OVERALL BUDGET ERROR =          -2082.05           BUDGET ERROR =            -14.17


  PERCENT DISCREPANCY =             -0.10    PERCENT DISCREPANCY =             -0.08



1
 SUMMARY VOLUMETRIC BUDGET FOR GSFLOW 
 DATE: 11 25 1990              CUMULATIVE TIME STEP:      25
 MODFLOW STRESS PERIOD      3     CURRENT TIME STEP:      56     ITERATIONS:       6

 -----------------------------------------------------------------------------------

   CUMULATIVE VOLUMES               L**3   RATES FOR THIS TIME STEP           L**3/T
   ------------------                      ------------------------

                                     IN                                         IN
                                     --                                         --
        PRECIPITATION =        1009043.38          PRECIPITATION =         186542.88
           STREAMFLOW =                               STREAMFLOW =                  
     GW BOUNDARY FLOW =                         GW BOUNDARY FLOW =                  


                                    OUT                                        OUT
                                    ---                                        ---
   EVAPOTRANSPIRATION =        1599393.47     EVAPOTRANSPIRATION =           6357.62
           STREAMFLOW =         557966.99             STREAMFLOW =          11156.28
     GW BOUNDARY FLOW =           2032.58       GW BOUNDARY FLOW =             36.07

   INFLOWS - OUTFLOWS =       -1150349.65     INFLOWS - OUTFLOWS =         168992.91
             --------                                   --------

 TOTAL STORAGE CHANGE =       -1148181.24         STORAGE CHANGE =         169002.88
       --------------                             --------------
         LAND SURFACE =          37126.34           LAND SURFACE =          20235.48
            SOIL ZONE =        -258015.74              SOIL ZONE =         160277.10
     UNSATURATED ZONE =       -1578127.95       UNSATURATED ZONE =         -19154.13
       SATURATED ZONE =         650836.11         SATURATED ZONE =           7644.43

 OVERALL BUDGET ERROR =          -2168.41           BUDGET ERROR =             -9.97


  PERCENT DISCREPANCY =             -0.10    PERCENT DISCREPANCY =             -0.01



1
 SUMMARY VOLUMETRIC BUDGET FOR GSFLOW 
 DATE: 12 02 1990              CUMULATIVE TIME STEP:       2
 MODFLOW STRESS PERIOD      4     CURRENT TIME STEP:      63     ITERATIONS:       6

 -----------------------------------------------------------------------------------

   CUMULATIVE VOLUMES               L**3   RATES FOR THIS TIME STEP           L**3/T
   ------------------                      ------------------------

                                     IN                                         IN
                                     --                                         --
        PRECIPITATION =        1449284.55          PRECIPITATION =                  
           STREAMFLOW =                               STREAMFLOW =                  
     GW BOUNDARY FLOW =                         GW BOUNDARY FLOW =                  


                                    OUT                                        OUT
                                    ---                                        ---
   EVAPOTRANSPIRATION =        1607137.27     EVAPOTRANSPIRATION =            374.58
           STREAMFLOW =         636810.39             STREAMFLOW =          11419.22
     GW BOUNDARY FLOW =           2284.69       GW BOUNDARY FLOW =             35.98

   INFLOWS - OUTFLOWS =        -796947.79     INFLOWS - OUTFLOWS =         -11829.78
             --------                                   --------

 TOTAL STORAGE CHANGE =        -794733.43         STORAGE CHANGE =         -11823.51
       --------------                             --------------
         LAND SURFACE =         437197.96           LAND SURFACE =           -451.19
            SOIL ZONE =        -224374.08              SOIL ZONE =            226.28
     UNSATURATED ZONE =       -1708481.93       UNSATURATED ZONE =         -18261.24
       SATURATED ZONE =         700924.62         SATURATED ZONE =           6662.63

 OVERALL BUDGET ERROR =          -2214.36           BUDGET ERROR =             -6.27


  PERCENT DISCREPANCY =             -0.10    PERCENT DISCREPANCY =             -0.05



1
 SUMMARY VOLUMETRIC BUDGET FOR GSFLOW 
 DATE: 12 09 1990              CUMULATIVE TIME STEP:       9
 MODFLOW STRESS PERIOD      4     CURRENT TIME STEP:      70     ITERATIONS:       5

 -----------------------------------------------------------------------------------

   CUMULATIVE VOLUMES               L**3   RATES FOR THIS TIME STEP           L**3/T
   ------------------                      ------------------------

                                     IN                                         IN
                                     --                                         --
        PRECIPITATION =        1449284.55          PRECIPITATION =                  
           STREAMFLOW =                               STREAMFLOW =                  
     GW BOUNDARY FLOW =                         GW BOUNDARY FLOW =                  


                                    OUT                                        OUT
                                    ---                                        ---
   EVAPOTRANSPIRATION =        1700718.23     EVAPOTRANSPIRATION =          20934.81
           STREAMFLOW =         717378.07             STREAMFLOW =          11548.29
     GW BOUNDARY FLOW =           2536.19       GW BOUNDARY FLOW =             35.89

   INFLOWS - OUTFLOWS =        -971347.94     INFLOWS - OUTFLOWS =         -32519.00
             --------                                   --------

 TOTAL STORAGE CHANGE =        -969091.21         STORAGE CHANGE =         -32516.51
       --------------                             --------------
         LAND SURFACE =          41512.44           LAND SURFACE =         -36212.48
            SOIL ZONE =          80634.95              SOIL ZONE =          16101.63
     UNSATURATED ZONE =       -1834518.35       UNSATURATED ZONE =         -17990.75
       SATURATED ZONE =         743279.75         SATURATED ZONE =           5585.08

 OVERALL BUDGET ERROR =          -2256.73           BUDGET ERROR =             -2.48


  PERCENT DISCREPANCY =             -0.09    PERCENT DISCREPANCY =             -0.01



1
 SUMMARY VOLUMETRIC BUDGET FOR GSFLOW 
 DATE: 12 16 1990              CUMULATIVE TIME STEP:      16
 MODFLOW STRESS PERIOD      4     CURRENT TIME STEP:      77     ITERATIONS:       5

 -----------------------------------------------------------------------------------

   CUMULATIVE VOLUMES               L**3   RATES FOR THIS TIME STEP           L**3/T
   ------------------                      ------------------------

                                     IN                                         IN
                                     --                                         --
        PRECIPITATION =        1804962.84          PRECIPITATION =                  
           STREAMFLOW =                               STREAMFLOW =                  
     GW BOUNDARY FLOW =                         GW BOUNDARY FLOW =                  


                                    OUT                                        OUT
                                    ---                                        ---
   EVAPOTRANSPIRATION =        1741506.63     EVAPOTRANSPIRATION =                  
           STREAMFLOW =         798759.42             STREAMFLOW =          11672.67
     GW BOUNDARY FLOW =           2787.06       GW BOUNDARY FLOW =             35.80

   INFLOWS - OUTFLOWS =        -738090.26     INFLOWS - OUTFLOWS =         -11708.47
             --------                                   --------

 TOTAL STORAGE CHANGE =        -735817.38         STORAGE CHANGE =         -11705.58
       --------------                             --------------
         LAND SURFACE =         187163.75           LAND SURFACE =                  
            SOIL ZONE =         252093.15              SOIL ZONE =            170.43
     UNSATURATED ZONE =       -1955111.59       UNSATURATED ZONE =         -16810.63
       SATURATED ZONE =         780037.31         SATURATED ZONE =           4934.63

 OVERALL BUDGET ERROR =          -2272.88           BUDGET ERROR =             -2.90


  PERCENT DISCREPANCY =             -0.09    PERCENT DISCREPANCY =             -0.02



1
 SUMMARY VOLUMETRIC BUDGET FOR GSFLOW 
 DATE: 12 23 1990              CUMULATIVE TIME STEP:      23
 MODFLOW STRESS PERIOD      4     CURRENT TIME STEP:      84     ITERATIONS:       5

 -----------------------------------------------------------------------------------

   CUMULATIVE VOLUMES               L**3   RATES FOR THIS TIME STEP           L**3/T
   ------------------                      ------------------------

                                     IN                                         IN
                                     --                                         --
        PRECIPITATION =        2276236.55          PRECIPITATION =                  
           STREAMFLOW =                               STREAMFLOW =                  
     GW BOUNDARY FLOW =                         GW BOUNDARY FLOW =                  


                                    OUT                                        OUT
                                    ---                                        ---
   EVAPOTRANSPIRATION =        1742884.87     EVAPOTRANSPIRATION =                  
           STREAMFLOW =         880899.82             STREAMFLOW =          11774.76
     GW BOUNDARY FLOW =           3037.32       GW BOUNDARY FLOW =             35.72

   INFLOWS - OUTFLOWS =        -350585.46     INFLOWS - OUTFLOWS =         -11810.48
             --------                                   --------

 TOTAL STORAGE CHANGE =        -348285.00         STORAGE CHANGE =         -11805.85
       --------------                             --------------
         LAND SURFACE =         657066.96           LAND SURFACE =                  
            SOIL ZONE =         253340.16              SOIL ZONE =            182.80
     UNSATURATED ZONE =       -2070331.20       UNSATURATED ZONE =         -16196.44
       SATURATED ZONE =         811639.08         SATURATED ZONE =           4207.79

 OVERALL BUDGET ERROR =          -2300.46           BUDGET ERROR =             -4.62


  PERCENT DISCREPANCY =             -0.09    PERCENT DISCREPANCY =             -0.04



1
 SUMMARY VOLUMETRIC BUDGET FOR GSFLOW 
 DATE: 12 30 1990              CUMULATIVE TIME STEP:      30
 MODFLOW STRESS PERIOD      4     CURRENT TIME STEP:      91     ITERATIONS:       5

 -----------------------------------------------------------------------------------

   CUMULATIVE VOLUMES               L**3   RATES FOR THIS TIME STEP           L**3/T
   ------------------                      ------------------------

                                     IN                                         IN
                                     --                                         --
        PRECIPITATION =        2276236.55          PRECIPITATION =                  
           STREAMFLOW =                               STREAMFLOW =                  
     GW BOUNDARY FLOW =              0.03       GW BOUNDARY FLOW =              0.02


                                    OUT                                        OUT
                                    ---                                        ---
   EVAPOTRANSPIRATION =        1743637.74     EVAPOTRANSPIRATION =                  
           STREAMFLOW =         963615.30             STREAMFLOW =          11843.08
     GW BOUNDARY FLOW =           3287.84       GW BOUNDARY FLOW =             35.78

   INFLOWS - OUTFLOWS =        -434304.30     INFLOWS - OUTFLOWS =         -11878.84
             --------                                   --------

 TOTAL STORAGE CHANGE =        -431966.22         STORAGE CHANGE =         -11872.83
       --------------                             --------------
         LAND SURFACE =         656314.47           LAND SURFACE =                  
            SOIL ZONE =         254648.58              SOIL ZONE =            190.63
     UNSATURATED ZONE =       -2180996.81       UNSATURATED ZONE =         -15545.37
       SATURATED ZONE =         838067.55         SATURATED ZONE =           3481.91

 OVERALL BUDGET ERROR =          -2338.08           BUDGET ERROR =             -6.01


  PERCENT DISCREPANCY =             -0.09    PERCENT DISCREPANCY =             -0.05



1
 SUMMARY VOLUMETRIC BUDGET FOR GSFLOW 
 DATE: 01 06 1991              CUMULATIVE TIME STEP:       6
 MODFLOW STRESS PERIOD      5     CURRENT TIME STEP:      98     ITERATIONS:      10

 -----------------------------------------------------------------------------------

   CUMULATIVE VOLUMES               L**3   RATES FOR THIS TIME STEP           L**3/T
   ------------------                      ------------------------

                                     IN                                         IN
                                     --                                         --
        PRECIPITATION =        2276236.55          PRECIPITATION =                  
           STREAMFLOW =                               STREAMFLOW =                  
     GW BOUNDARY FLOW =              0.57       GW BOUNDARY FLOW =              0.12


                                    OUT                                        OUT
                                    ---                                        ---
   EVAPOTRANSPIRATION =        1766980.44     EVAPOTRANSPIRATION =           2588.73
           STREAMFLOW =        1046085.19             STREAMFLOW =          11205.36
     GW BOUNDARY FLOW =           3538.33       GW BOUNDARY FLOW =             35.77

   INFLOWS - OUTFLOWS =        -540366.85     INFLOWS - OUTFLOWS =         -13829.74
             --------                                   --------

 TOTAL STORAGE CHANGE =        -537982.79         STORAGE CHANGE =         -13824.27
       --------------                             --------------
         LAND SURFACE =         548041.05           LAND SURFACE =          -6127.39
            SOIL ZONE =         341045.79              SOIL ZONE =           3744.73
     UNSATURATED ZONE =       -2287528.44       UNSATURATED ZONE =         -14977.10
       SATURATED ZONE =         860458.80         SATURATED ZONE =           3535.49

 OVERALL BUDGET ERROR =          -2384.06           BUDGET ERROR =             -5.46


  PERCENT DISCREPANCY =             -0.08    PERCENT DISCREPANCY =             -0.04



1
 SUMMARY VOLUMETRIC BUDGET FOR GSFLOW 
 DATE: 01 13 1991              CUMULATIVE TIME STEP:      13
 MODFLOW STRESS PERIOD      5     CURRENT TIME STEP:     105     ITERATIONS:       6

 -----------------------------------------------------------------------------------

   CUMULATIVE VOLUMES               L**3   RATES FOR THIS TIME STEP           L**3/T
   ------------------                      ------------------------

                                     IN                                         IN
                                     --                                         --
        PRECIPITATION =        2596386.94          PRECIPITATION =          10327.43
           STREAMFLOW =                               STREAMFLOW =                  
     GW BOUNDARY FLOW =              1.76       GW BOUNDARY FLOW =              0.21


                                    OUT                                        OUT
                                    ---                                        ---
   EVAPOTRANSPIRATION =        1829068.58     EVAPOTRANSPIRATION =          18257.54
           STREAMFLOW =        1128561.19             STREAMFLOW =          11716.78
     GW BOUNDARY FLOW =           3788.78       GW BOUNDARY FLOW =             35.76

   INFLOWS - OUTFLOWS =        -365029.84     INFLOWS - OUTFLOWS =         -19682.44
             --------                                   --------

 TOTAL STORAGE CHANGE =        -362596.99         STORAGE CHANGE =         -19675.02
       --------------                             --------------
         LAND SURFACE =         512042.82           LAND SURFACE =        -134113.87
            SOIL ZONE =         640296.15              SOIL ZONE =         129020.09
     UNSATURATED ZONE =       -2392290.23       UNSATURATED ZONE =         -16012.59
       SATURATED ZONE =         877354.27         SATURATED ZONE =           1431.35

 OVERALL BUDGET ERROR =          -2432.85           BUDGET ERROR =             -7.42


  PERCENT DISCREPANCY =             -0.08    PERCENT DISCREPANCY =             -0.02



1
 SUMMARY VOLUMETRIC BUDGET FOR GSFLOW 
 DATE: 01 20 1991              CUMULATIVE TIME STEP:      20
 MODFLOW STRESS PERIOD      5     CURRENT TIME STEP:     112     ITERATIONS:       7

 -----------------------------------------------------------------------------------

   CUMULATIVE VOLUMES               L**3   RATES FOR THIS TIME STEP           L**3/T
   ------------------                      ------------------------

                                     IN                                         IN
                                     --                                         --
        PRECIPITATION =        2596386.94          PRECIPITATION =                  
           STREAMFLOW =                               STREAMFLOW =                  
     GW BOUNDARY FLOW =              3.57       GW BOUNDARY FLOW =              0.30


                                    OUT                                        OUT
                                    ---                                        ---
   EVAPOTRANSPIRATION =        1899509.09     EVAPOTRANSPIRATION =           1899.28
           STREAMFLOW =        1210857.84             STREAMFLOW =          11826.96
     GW BOUNDARY FLOW =           4039.22       GW BOUNDARY FLOW =             35.78

   INFLOWS - OUTFLOWS =        -518015.64     INFLOWS - OUTFLOWS =         -13761.72
             --------                                   --------

 TOTAL STORAGE CHANGE =        -515530.47         STORAGE CHANGE =         -13755.69
       --------------                             --------------
         LAND SURFACE =         353293.54           LAND SURFACE =           -254.70
            SOIL ZONE =         733946.10              SOIL ZONE =          -1320.56
     UNSATURATED ZONE =       -2493278.28       UNSATURATED ZONE =         -13892.80
       SATURATED ZONE =         890508.18         SATURATED ZONE =           1712.37

 OVERALL BUDGET ERROR =          -2485.17           BUDGET ERROR =             -6.03


  PERCENT DISCREPANCY =             -0.08    PERCENT DISCREPANCY =             -0.04



1
 SUMMARY VOLUMETRIC BUDGET FOR GSFLOW 
 DATE: 01 27 1991              CUMULATIVE TIME STEP:      27
 MODFLOW STRESS PERIOD      5     CURRENT TIME STEP:     119     ITERATIONS:       5

 -----------------------------------------------------------------------------------

   CUMULATIVE VOLUMES               L**3   RATES FOR THIS TIME STEP           L**3/T
   ------------------                      ------------------------

                                     IN                                         IN
                                     --                                         --
        PRECIPITATION =        2596386.94          PRECIPITATION =                  
           STREAMFLOW =                               STREAMFLOW =                  
     GW BOUNDARY FLOW =              5.99       GW BOUNDARY FLOW =              0.38


                                    OUT                                        OUT
                                    ---                                        ---
   EVAPOTRANSPIRATION =        1921922.31     EVAPOTRANSPIRATION =           1246.56
           STREAMFLOW =        1294491.20             STREAMFLOW =          11996.89
     GW BOUNDARY FLOW =           4289.66       GW BOUNDARY FLOW =             35.78

   INFLOWS - OUTFLOWS =        -624310.23     INFLOWS - OUTFLOWS =         -13278.85
             --------                                   --------

 TOTAL STORAGE CHANGE =        -621750.90         STORAGE CHANGE =         -13266.88
       --------------                             --------------
         LAND SURFACE =         325482.24           LAND SURFACE =            -73.52
            SOIL ZONE =         742829.90              SOIL ZONE =           -928.79
     UNSATURATED ZONE =       -2589116.82       UNSATURATED ZONE =         -13271.71
       SATURATED ZONE =         899053.78         SATURATED ZONE =           1007.13

 OVERALL BUDGET ERROR =          -2559.33           BUDGET ERROR =            -11.96


  PERCENT DISCREPANCY =             -0.08    PERCENT DISCREPANCY =             -0.09



1
 SUMMARY VOLUMETRIC BUDGET FOR GSFLOW 
 DATE: 02 03 1991              CUMULATIVE TIME STEP:       3
 MODFLOW STRESS PERIOD      6     CURRENT TIME STEP:     126     ITERATIONS:       6

 -----------------------------------------------------------------------------------

   CUMULATIVE VOLUMES               L**3   RATES FOR THIS TIME STEP           L**3/T
   ------------------                      ------------------------

                                     IN                                         IN
                                     --                                         --
        PRECIPITATION =        3228422.31          PRECIPITATION =          30459.53
           STREAMFLOW =                               STREAMFLOW =                  
     GW BOUNDARY FLOW =              8.98       GW BOUNDARY FLOW =              0.46


                                    OUT                                        OUT
                                    ---                                        ---
   EVAPOTRANSPIRATION =        2027228.05     EVAPOTRANSPIRATION =          20882.15
           STREAMFLOW =        1378470.29             STREAMFLOW =          12046.86
     GW BOUNDARY FLOW =           4540.05       GW BOUNDARY FLOW =             35.77

   INFLOWS - OUTFLOWS =        -181807.10     INFLOWS - OUTFLOWS =          -2504.78
             --------                                   --------

 TOTAL STORAGE CHANGE =        -179169.76         STORAGE CHANGE =          -2496.75
       --------------                             --------------
         LAND SURFACE =         146751.00           LAND SURFACE =         -24802.24
            SOIL ZONE =        1456388.34              SOIL ZONE =          34740.36
     UNSATURATED ZONE =       -2684780.56       UNSATURATED ZONE =         -12765.85
       SATURATED ZONE =         902471.46         SATURATED ZONE =            330.98

 OVERALL BUDGET ERROR =          -2637.34           BUDGET ERROR =             -8.03


  PERCENT DISCREPANCY =             -0.08    PERCENT DISCREPANCY =             -0.02



1
 SUMMARY VOLUMETRIC BUDGET FOR GSFLOW 
 DATE: 02 10 1991              CUMULATIVE TIME STEP:      10
 MODFLOW STRESS PERIOD      6     CURRENT TIME STEP:     133     ITERATIONS:       5

 -----------------------------------------------------------------------------------

   CUMULATIVE VOLUMES               L**3   RATES FOR THIS TIME STEP           L**3/T
   ------------------                      ------------------------

                                     IN                                         IN
                                     --                                         --
        PRECIPITATION =        3510173.01          PRECIPITATION =                  
           STREAMFLOW =                               STREAMFLOW =                  
     GW BOUNDARY FLOW =             12.51       GW BOUNDARY FLOW =              0.54


                                    OUT                                        OUT
                                    ---                                        ---
   EVAPOTRANSPIRATION =        2195345.26     EVAPOTRANSPIRATION =          26021.70
           STREAMFLOW =        1463293.71             STREAMFLOW =          12139.14
     GW BOUNDARY FLOW =           4790.23       GW BOUNDARY FLOW =             35.70

   INFLOWS - OUTFLOWS =        -153243.67     INFLOWS - OUTFLOWS =         -38196.01
             --------                                   --------

 TOTAL STORAGE CHANGE =        -150519.77         STORAGE CHANGE =         -38181.53
       --------------                             --------------
         LAND SURFACE =          63774.58           LAND SURFACE =         -10017.74
            SOIL ZONE =        1646251.06              SOIL ZONE =         -16844.26
     UNSATURATED ZONE =       -2763865.59       UNSATURATED ZONE =         -11161.48
       SATURATED ZONE =         903320.17         SATURATED ZONE =           -158.04

 OVERALL BUDGET ERROR =          -2723.90           BUDGET ERROR =            -14.48


  PERCENT DISCREPANCY =             -0.07    PERCENT DISCREPANCY =             -0.04



1
 SUMMARY VOLUMETRIC BUDGET FOR GSFLOW 
 DATE: 02 17 1991              CUMULATIVE TIME STEP:      17
 MODFLOW STRESS PERIOD      6     CURRENT TIME STEP:     140     ITERATIONS:       5

 -----------------------------------------------------------------------------------

   CUMULATIVE VOLUMES               L**3   RATES FOR THIS TIME STEP           L**3/T
   ------------------                      ------------------------

                                     IN                                         IN
                                     --                                         --
        PRECIPITATION =        3510173.01          PRECIPITATION =                  
           STREAMFLOW =                               STREAMFLOW =                  
     GW BOUNDARY FLOW =             16.56       GW BOUNDARY FLOW =              0.61


                                    OUT                                        OUT
                                    ---                                        ---
   EVAPOTRANSPIRATION =        2439599.31     EVAPOTRANSPIRATION =          23162.46
           STREAMFLOW =        1548425.39             STREAMFLOW =          12177.57
     GW BOUNDARY FLOW =           5039.79       GW BOUNDARY FLOW =             35.61

   INFLOWS - OUTFLOWS =        -482874.93     INFLOWS - OUTFLOWS =         -35375.03
             --------                                   --------

 TOTAL STORAGE CHANGE =        -480043.86         STORAGE CHANGE =         -35359.28
       --------------                             --------------
         LAND SURFACE =          10625.62           LAND SURFACE =          -1107.15
            SOIL ZONE =        1449318.75              SOIL ZONE =         -23064.87
     UNSATURATED ZONE =       -2840442.53       UNSATURATED ZONE =         -10640.65
       SATURATED ZONE =         900454.30         SATURATED ZONE =           -546.61

 OVERALL BUDGET ERROR =          -2831.08           BUDGET ERROR =            -15.75


  PERCENT DISCREPANCY =             -0.07    PERCENT DISCREPANCY =             -0.04



1
 SUMMARY VOLUMETRIC BUDGET FOR GSFLOW 
 DATE: 02 24 1991              CUMULATIVE TIME STEP:      24
 MODFLOW STRESS PERIOD      6     CURRENT TIME STEP:     147     ITERATIONS:       5

 -----------------------------------------------------------------------------------

   CUMULATIVE VOLUMES               L**3   RATES FOR THIS TIME STEP           L**3/T
   ------------------                      ------------------------

                                     IN                                         IN
                                     --                                         --
        PRECIPITATION =        3510173.01          PRECIPITATION =                  
           STREAMFLOW =                               STREAMFLOW =                  
     GW BOUNDARY FLOW =             21.08       GW BOUNDARY FLOW =              0.68


                                    OUT                                        OUT
                                    ---                                        ---
   EVAPOTRANSPIRATION =        2633271.15     EVAPOTRANSPIRATION =          18113.40
           STREAMFLOW =        1632780.01             STREAMFLOW =          11935.88
     GW BOUNDARY FLOW =           5288.69       GW BOUNDARY FLOW =             35.50

   INFLOWS - OUTFLOWS =        -761145.76     INFLOWS - OUTFLOWS =         -30084.10
             --------                                   --------

 TOTAL STORAGE CHANGE =        -758205.05         STORAGE CHANGE =         -30066.75
       --------------                             --------------
         LAND SURFACE =           3951.44           LAND SURFACE =           -125.27
            SOIL ZONE =        1263057.89              SOIL ZONE =         -17367.97
     UNSATURATED ZONE =       -2914851.80       UNSATURATED ZONE =         -10616.13
       SATURATED ZONE =         889637.42         SATURATED ZONE =          -1957.38

 OVERALL BUDGET ERROR =          -2940.71           BUDGET ERROR =            -17.34


  PERCENT DISCREPANCY =             -0.07    PERCENT DISCREPANCY =             -0.06



1
 SUMMARY VOLUMETRIC BUDGET FOR GSFLOW 
 DATE: 03 03 1991              CUMULATIVE TIME STEP:       3
 MODFLOW STRESS PERIOD      7     CURRENT TIME STEP:     154     ITERATIONS:       5

 -----------------------------------------------------------------------------------

   CUMULATIVE VOLUMES               L**3   RATES FOR THIS TIME STEP           L**3/T
   ------------------                      ------------------------

                                     IN                                         IN
                                     --                                         --
        PRECIPITATION =        6220189.63          PRECIPITATION =        1243187.24
           STREAMFLOW =                               STREAMFLOW =                  
     GW BOUNDARY FLOW =             26.07       GW BOUNDARY FLOW =              0.74


                                    OUT                                        OUT
                                    ---                                        ---
   EVAPOTRANSPIRATION =        2762201.78     EVAPOTRANSPIRATION =           8690.34
           STREAMFLOW =        1715999.31             STREAMFLOW =          12171.00
     GW BOUNDARY FLOW =           5536.82       GW BOUNDARY FLOW =             35.44

   INFLOWS - OUTFLOWS =        1736477.79     INFLOWS - OUTFLOWS =        1222291.20
             --------                                   --------

 TOTAL STORAGE CHANGE =        1739545.08         STORAGE CHANGE =        1222309.21
       --------------                             --------------
         LAND SURFACE =        2158411.84           LAND SURFACE =         700230.69
            SOIL ZONE =        1697368.73              SOIL ZONE =         534038.82
     UNSATURATED ZONE =       -2989259.76       UNSATURATED ZONE =         -10032.98
       SATURATED ZONE =         873024.28         SATURATED ZONE =          -1927.32

 OVERALL BUDGET ERROR =          -3067.29           BUDGET ERROR =            -18.00


  PERCENT DISCREPANCY =             -0.05    PERCENT DISCREPANCY =             -0.00



1
 SUMMARY VOLUMETRIC BUDGET FOR GSFLOW 
 DATE: 03 10 1991              CUMULATIVE TIME STEP:      10
 MODFLOW STRESS PERIOD      7     CURRENT TIME STEP:     161     ITERATIONS:       5

 -----------------------------------------------------------------------------------

   CUMULATIVE VOLUMES               L**3   RATES FOR THIS TIME STEP           L**3/T
   ------------------                      ------------------------

                                     IN                                         IN
                                     --                                         --
        PRECIPITATION =        8746030.42          PRECIPITATION =          32888.55
           STREAMFLOW =                               STREAMFLOW =                  
     GW BOUNDARY FLOW =             31.46       GW BOUNDARY FLOW =              0.80


                                    OUT                                        OUT
                                    ---                                        ---
   EVAPOTRANSPIRATION =        2816673.82     EVAPOTRANSPIRATION =           7502.75
           STREAMFLOW =        2639045.54             STREAMFLOW =          13555.02
     GW BOUNDARY FLOW =           5790.67       GW BOUNDARY FLOW =             35.41

   INFLOWS - OUTFLOWS =        3284551.86     INFLOWS - OUTFLOWS =          11796.17
             --------                                   --------

 TOTAL STORAGE CHANGE =        3287704.43         STORAGE CHANGE =          11815.08
       --------------                             --------------
         LAND SURFACE =        2235698.36           LAND SURFACE =          -4542.91
            SOIL ZONE =        3180513.02              SOIL ZONE =          18233.22
     UNSATURATED ZONE =       -2992245.56       UNSATURATED ZONE =           -185.79
       SATURATED ZONE =         863738.61         SATURATED ZONE =          -1689.44

 OVERALL BUDGET ERROR =          -3152.57           BUDGET ERROR =            -18.91


  PERCENT DISCREPANCY =             -0.04    PERCENT DISCREPANCY =             -0.06



1
 SUMMARY VOLUMETRIC BUDGET FOR GSFLOW 
 DATE: 03 17 1991              CUMULATIVE TIME STEP:      17
 MODFLOW STRESS PERIOD      7     CURRENT TIME STEP:     168     ITERATIONS:       5

 -----------------------------------------------------------------------------------

   CUMULATIVE VOLUMES               L**3   RATES FOR THIS TIME STEP           L**3/T
   ------------------                      ------------------------

                                     IN                                         IN
                                     --                                         --
        PRECIPITATION =        9897129.71          PRECIPITATION =         157865.04
           STREAMFLOW =                               STREAMFLOW =                  
     GW BOUNDARY FLOW =             37.31       GW BOUNDARY FLOW =              0.86


                                    OUT                                        OUT
                                    ---                                        ---
   EVAPOTRANSPIRATION =        2839986.55     EVAPOTRANSPIRATION =           6975.50
           STREAMFLOW =        2742407.55             STREAMFLOW =          16639.53
     GW BOUNDARY FLOW =           6038.30       GW BOUNDARY FLOW =             35.36

   INFLOWS - OUTFLOWS =        4308734.62     INFLOWS - OUTFLOWS =         134215.52
             --------                                   --------

 TOTAL STORAGE CHANGE =        4311996.77         STORAGE CHANGE =         134234.02
       --------------                             --------------
         LAND SURFACE =        3338153.20           LAND SURFACE =         123394.04
            SOIL ZONE =        3117004.98              SOIL ZONE =          13936.87
     UNSATURATED ZONE =       -2996004.91       UNSATURATED ZONE =          -1243.22
       SATURATED ZONE =         852843.51         SATURATED ZONE =          -1853.67

 OVERALL BUDGET ERROR =          -3262.16           BUDGET ERROR =            -18.50


  PERCENT DISCREPANCY =             -0.03    PERCENT DISCREPANCY =             -0.01



1
 SUMMARY VOLUMETRIC BUDGET FOR GSFLOW 
 DATE: 03 24 1991              CUMULATIVE TIME STEP:      24
 MODFLOW STRESS PERIOD      7     CURRENT TIME STEP:     175     ITERATIONS:       5

 -----------------------------------------------------------------------------------

   CUMULATIVE VOLUMES               L**3   RATES FOR THIS TIME STEP           L**3/T
   ------------------                      ------------------------

                                     IN                                         IN
                                     --                                         --
        PRECIPITATION =        1.1673D+07          PRECIPITATION =        1230031.83
           STREAMFLOW =                               STREAMFLOW =                  
     GW BOUNDARY FLOW =             43.57       GW BOUNDARY FLOW =              0.92


                                    OUT                                        OUT
                                    ---                                        ---
   EVAPOTRANSPIRATION =        2873404.94     EVAPOTRANSPIRATION =           3938.05
           STREAMFLOW =        2861935.88             STREAMFLOW =          17596.55
     GW BOUNDARY FLOW =           6285.36       GW BOUNDARY FLOW =             35.25

   INFLOWS - OUTFLOWS =        5931528.90     INFLOWS - OUTFLOWS =        1208462.90
             --------                                   --------

 TOTAL STORAGE CHANGE =        5934899.24         STORAGE CHANGE =        1208480.42
       --------------                             --------------
         LAND SURFACE =        5073781.79           LAND SURFACE =        1227482.51
            SOIL ZONE =        3027776.71              SOIL ZONE =         -15317.69
     UNSATURATED ZONE =       -3007163.73       UNSATURATED ZONE =          -1949.88
       SATURATED ZONE =         840504.47         SATURATED ZONE =          -1734.52

 OVERALL BUDGET ERROR =          -3370.35           BUDGET ERROR =            -17.52


  PERCENT DISCREPANCY =             -0.03    PERCENT DISCREPANCY =             -0.00



1
 SUMMARY VOLUMETRIC BUDGET FOR GSFLOW 
 DATE: 03 31 1991              CUMULATIVE TIME STEP:      31
 MODFLOW STRESS PERIOD      7     CURRENT TIME STEP:     182     ITERATIONS:       6

 -----------------------------------------------------------------------------------

   CUMULATIVE VOLUMES               L**3   RATES FOR THIS TIME STEP           L**3/T
   ------------------                      ------------------------

                                     IN                                         IN
                                     --                                         --
        PRECIPITATION =        1.2495D+07          PRECIPITATION =                  
           STREAMFLOW =                               STREAMFLOW =                  
     GW BOUNDARY FLOW =             50.24       GW BOUNDARY FLOW =              0.98


                                    OUT                                        OUT
                                    ---                                        ---
   EVAPOTRANSPIRATION =        2981285.98     EVAPOTRANSPIRATION =          44630.18
           STREAMFLOW =        3002043.03             STREAMFLOW =          26072.06
     GW BOUNDARY FLOW =           6531.93       GW BOUNDARY FLOW =             35.28

   INFLOWS - OUTFLOWS =        6505514.59     INFLOWS - OUTFLOWS =         -70736.55
             --------                                   --------

 TOTAL STORAGE CHANGE =        6508982.59         STORAGE CHANGE =         -70727.11
       --------------                             --------------
         LAND SURFACE =        5647574.86           LAND SURFACE =        -132565.95
            SOIL ZONE =        3054279.23              SOIL ZONE =          65952.04
     UNSATURATED ZONE =       -3021030.34       UNSATURATED ZONE =          -2175.66
       SATURATED ZONE =         828158.85         SATURATED ZONE =          -1937.53

 OVERALL BUDGET ERROR =          -3468.00           BUDGET ERROR =             -9.45


  PERCENT DISCREPANCY =             -0.03    PERCENT DISCREPANCY =             -0.01



1
 SUMMARY VOLUMETRIC BUDGET FOR GSFLOW 
 DATE: 04 07 1991              CUMULATIVE TIME STEP:       7
 MODFLOW STRESS PERIOD      8     CURRENT TIME STEP:     189     ITERATIONS:       7

 -----------------------------------------------------------------------------------

   CUMULATIVE VOLUMES               L**3   RATES FOR THIS TIME STEP           L**3/T
   ------------------                      ------------------------

                                     IN                                         IN
                                     --                                         --
        PRECIPITATION =        1.3018D+07          PRECIPITATION =                  
           STREAMFLOW =                               STREAMFLOW =                  
     GW BOUNDARY FLOW =             57.27       GW BOUNDARY FLOW =              1.02


                                    OUT                                        OUT
                                    ---                                        ---
   EVAPOTRANSPIRATION =        3268520.38     EVAPOTRANSPIRATION =          13551.15
           STREAMFLOW =        3349507.00             STREAMFLOW =          53366.10
     GW BOUNDARY FLOW =           6780.65       GW BOUNDARY FLOW =             35.57

   INFLOWS - OUTFLOWS =        6392985.98     INFLOWS - OUTFLOWS =         -66951.81
             --------                                   --------

 TOTAL STORAGE CHANGE =        6396509.42         STORAGE CHANGE =         -66947.29
       --------------                             --------------
         LAND SURFACE =        4116185.85           LAND SURFACE =         -56924.70
            SOIL ZONE =        4458133.64              SOIL ZONE =         -18926.16
     UNSATURATED ZONE =       -2996231.52       UNSATURATED ZONE =           9691.93
       SATURATED ZONE =         818421.46         SATURATED ZONE =           -788.36

 OVERALL BUDGET ERROR =          -3523.44           BUDGET ERROR =             -4.52


  PERCENT DISCREPANCY =             -0.03    PERCENT DISCREPANCY =             -0.01



1
 SUMMARY VOLUMETRIC BUDGET FOR GSFLOW 
 DATE: 04 14 1991              CUMULATIVE TIME STEP:      14
 MODFLOW STRESS PERIOD      8     CURRENT TIME STEP:     196     ITERATIONS:       6

 -----------------------------------------------------------------------------------

   CUMULATIVE VOLUMES               L**3   RATES FOR THIS TIME STEP           L**3/T
   ------------------                      ------------------------

                                     IN                                         IN
                                     --                                         --
        PRECIPITATION =        1.3018D+07          PRECIPITATION =                  
           STREAMFLOW =                               STREAMFLOW =                  
     GW BOUNDARY FLOW =             64.62       GW BOUNDARY FLOW =              1.07


                                    OUT                                        OUT
                                    ---                                        ---
   EVAPOTRANSPIRATION =        3438449.12     EVAPOTRANSPIRATION =          38955.66
           STREAMFLOW =        3809117.21             STREAMFLOW =          73543.14
     GW BOUNDARY FLOW =           7030.06       GW BOUNDARY FLOW =             35.67

   INFLOWS - OUTFLOWS =        5763204.96     INFLOWS - OUTFLOWS =        -112533.40
             --------                                   --------

 TOTAL STORAGE CHANGE =        5766758.67         STORAGE CHANGE =        -112528.61
       --------------                             --------------
         LAND SURFACE =        3541064.90           LAND SURFACE =        -164763.05
            SOIL ZONE =        4344449.64              SOIL ZONE =          44466.61
     UNSATURATED ZONE =       -2934204.89       UNSATURATED ZONE =           7919.13
       SATURATED ZONE =         815449.02         SATURATED ZONE =           -151.30

 OVERALL BUDGET ERROR =          -3553.70           BUDGET ERROR =             -4.79


  PERCENT DISCREPANCY =             -0.03    PERCENT DISCREPANCY =             -0.00



1
 SUMMARY VOLUMETRIC BUDGET FOR GSFLOW 
 DATE: 04 21 1991              CUMULATIVE TIME STEP:      21
 MODFLOW STRESS PERIOD      8     CURRENT TIME STEP:     203     ITERATIONS:       6

 -----------------------------------------------------------------------------------

   CUMULATIVE VOLUMES               L**3   RATES FOR THIS TIME STEP           L**3/T
   ------------------                      ------------------------

                                     IN                                         IN
                                     --                                         --
        PRECIPITATION =        1.3034D+07          PRECIPITATION =                  
           STREAMFLOW =                               STREAMFLOW =                  
     GW BOUNDARY FLOW =             72.29       GW BOUNDARY FLOW =              1.11


                                    OUT                                        OUT
                                    ---                                        ---
   EVAPOTRANSPIRATION =        3670250.97     EVAPOTRANSPIRATION =          43459.74
           STREAMFLOW =        4324215.83             STREAMFLOW =          81283.80
     GW BOUNDARY FLOW =           7279.13       GW BOUNDARY FLOW =             35.61

   INFLOWS - OUTFLOWS =        5032388.45     INFLOWS - OUTFLOWS =        -124778.04
             --------                                   --------

 TOTAL STORAGE CHANGE =        5035966.55         STORAGE CHANGE =        -124774.40
       --------------                             --------------
         LAND SURFACE =        2540683.32           LAND SURFACE =        -195293.54
            SOIL ZONE =        4556517.74              SOIL ZONE =          61038.26
     UNSATURATED ZONE =       -2876533.31       UNSATURATED ZONE =           9468.53
       SATURATED ZONE =         815298.80         SATURATED ZONE =             12.35

 OVERALL BUDGET ERROR =          -3578.11           BUDGET ERROR =             -3.64


  PERCENT DISCREPANCY =             -0.03    PERCENT DISCREPANCY =             -0.00



1
 SUMMARY VOLUMETRIC BUDGET FOR GSFLOW 
 DATE: 04 28 1991              CUMULATIVE TIME STEP:      28
 MODFLOW STRESS PERIOD      8     CURRENT TIME STEP:     210     ITERATIONS:       6

 -----------------------------------------------------------------------------------

   CUMULATIVE VOLUMES               L**3   RATES FOR THIS TIME STEP           L**3/T
   ------------------                      ------------------------

                                     IN                                         IN
                                     --                                         --
        PRECIPITATION =        1.3303D+07          PRECIPITATION =                  
           STREAMFLOW =                               STREAMFLOW =                  
     GW BOUNDARY FLOW =             80.24       GW BOUNDARY FLOW =              1.15


                                    OUT                                        OUT
                                    ---                                        ---
   EVAPOTRANSPIRATION =        3917209.03     EVAPOTRANSPIRATION =          55283.23
           STREAMFLOW =        4917933.86             STREAMFLOW =          88521.20
     GW BOUNDARY FLOW =           7528.12       GW BOUNDARY FLOW =             35.55

   INFLOWS - OUTFLOWS =        4460839.73     INFLOWS - OUTFLOWS =        -143838.82
             --------                                   --------

 TOTAL STORAGE CHANGE =        4464436.63         STORAGE CHANGE =        -143836.83
       --------------                             --------------
         LAND SURFACE =        1797938.24           LAND SURFACE =        -152903.02
            SOIL ZONE =        4657049.04              SOIL ZONE =          -1184.53
     UNSATURATED ZONE =       -2808060.88       UNSATURATED ZONE =           9816.55
       SATURATED ZONE =         817510.24         SATURATED ZONE =            434.18

 OVERALL BUDGET ERROR =          -3596.90           BUDGET ERROR =             -1.99


  PERCENT DISCREPANCY =             -0.03    PERCENT DISCREPANCY =             -0.00



1
 SUMMARY VOLUMETRIC BUDGET FOR GSFLOW 
 DATE: 05 05 1991              CUMULATIVE TIME STEP:       5
 MODFLOW STRESS PERIOD      9     CURRENT TIME STEP:     217     ITERATIONS:       7

 -----------------------------------------------------------------------------------

   CUMULATIVE VOLUMES               L**3   RATES FOR THIS TIME STEP           L**3/T
   ------------------                      ------------------------

                                     IN                                         IN
                                     --                                         --
        PRECIPITATION =        1.3510D+07          PRECIPITATION =                  
           STREAMFLOW =                               STREAMFLOW =                  
     GW BOUNDARY FLOW =             88.49       GW BOUNDARY FLOW =              1.20


                                    OUT                                        OUT
                                    ---                                        ---
   EVAPOTRANSPIRATION =        4266278.59     EVAPOTRANSPIRATION =          84817.23
           STREAMFLOW =        5479450.86             STREAMFLOW =          78565.35
     GW BOUNDARY FLOW =           7775.74       GW BOUNDARY FLOW =             35.30

   INFLOWS - OUTFLOWS =        3756291.43     INFLOWS - OUTFLOWS =        -163416.68
             --------                                   --------

 TOTAL STORAGE CHANGE =        3759899.88         STORAGE CHANGE =        -163414.99
       --------------                             --------------
         LAND SURFACE =        1121135.55           LAND SURFACE =        -152852.60
            SOIL ZONE =        4563208.72              SOIL ZONE =         -19773.11
     UNSATURATED ZONE =       -2745469.23       UNSATURATED ZONE =           8639.89
       SATURATED ZONE =         821024.85         SATURATED ZONE =            570.84

 OVERALL BUDGET ERROR =          -3608.45           BUDGET ERROR =             -1.70


  PERCENT DISCREPANCY =             -0.03    PERCENT DISCREPANCY =             -0.00



1
 SUMMARY VOLUMETRIC BUDGET FOR GSFLOW 
 DATE: 05 12 1991              CUMULATIVE TIME STEP:      12
 MODFLOW STRESS PERIOD      9     CURRENT TIME STEP:     224     ITERATIONS:       7

 -----------------------------------------------------------------------------------

   CUMULATIVE VOLUMES               L**3   RATES FOR THIS TIME STEP           L**3/T
   ------------------                      ------------------------

                                     IN                                         IN
                                     --                                         --
        PRECIPITATION =        1.4029D+07          PRECIPITATION =                  
           STREAMFLOW =                               STREAMFLOW =                  
     GW BOUNDARY FLOW =             97.04       GW BOUNDARY FLOW =              1.24


                                    OUT                                        OUT
                                    ---                                        ---
   EVAPOTRANSPIRATION =        4636207.54     EVAPOTRANSPIRATION =          62594.93
           STREAMFLOW =        6020118.17             STREAMFLOW =          70411.02
     GW BOUNDARY FLOW =           8022.07       GW BOUNDARY FLOW =             35.06

   INFLOWS - OUTFLOWS =        3364971.41     INFLOWS - OUTFLOWS =        -133039.77
             --------                                   --------

 TOTAL STORAGE CHANGE =        3368585.37         STORAGE CHANGE =        -133039.31
       --------------                             --------------
         LAND SURFACE =         710447.91           LAND SURFACE =         -96049.30
            SOIL ZONE =        4522084.41              SOIL ZONE =         -44878.13
     UNSATURATED ZONE =       -2692802.51       UNSATURATED ZONE =           6894.45
       SATURATED ZONE =         828855.57         SATURATED ZONE =            993.66

 OVERALL BUDGET ERROR =          -3613.96           BUDGET ERROR =             -0.46


  PERCENT DISCREPANCY =             -0.03    PERCENT DISCREPANCY =             -0.00



1
 SUMMARY VOLUMETRIC BUDGET FOR GSFLOW 
 DATE: 05 19 1991              CUMULATIVE TIME STEP:      19
 MODFLOW STRESS PERIOD      9     CURRENT TIME STEP:     231     ITERATIONS:       6

 -----------------------------------------------------------------------------------

   CUMULATIVE VOLUMES               L**3   RATES FOR THIS TIME STEP           L**3/T
   ------------------                      ------------------------

                                     IN                                         IN
                                     --                                         --
        PRECIPITATION =        1.4365D+07          PRECIPITATION =                  
           STREAMFLOW =                               STREAMFLOW =                  
     GW BOUNDARY FLOW =            105.88       GW BOUNDARY FLOW =              1.28


                                    OUT                                        OUT
                                    ---                                        ---
   EVAPOTRANSPIRATION =        5036316.38     EVAPOTRANSPIRATION =          17977.42
           STREAMFLOW =        6447797.53             STREAMFLOW =          54044.75
     GW BOUNDARY FLOW =           8266.14       GW BOUNDARY FLOW =             34.72

   INFLOWS - OUTFLOWS =        2873104.14     INFLOWS - OUTFLOWS =         -72055.60
             --------                                   --------

 TOTAL STORAGE CHANGE =        2876719.28         STORAGE CHANGE =         -72055.49
       --------------                             --------------
         LAND SURFACE =         410881.34           LAND SURFACE =         -28850.07
            SOIL ZONE =        4284586.15              SOIL ZONE =         -48180.77
     UNSATURATED ZONE =       -2653110.95       UNSATURATED ZONE =           4476.17
       SATURATED ZONE =         834362.73         SATURATED ZONE =            499.18

 OVERALL BUDGET ERROR =          -3615.13           BUDGET ERROR =             -0.12


  PERCENT DISCREPANCY =             -0.03    PERCENT DISCREPANCY =             -0.00



1
 SUMMARY VOLUMETRIC BUDGET FOR GSFLOW 
 DATE: 05 26 1991              CUMULATIVE TIME STEP:      26
 MODFLOW STRESS PERIOD      9     CURRENT TIME STEP:     238     ITERATIONS:       6

 -----------------------------------------------------------------------------------

   CUMULATIVE VOLUMES               L**3   RATES FOR THIS TIME STEP           L**3/T
   ------------------                      ------------------------

                                     IN                                         IN
                                     --                                         --
        PRECIPITATION =        1.4426D+07          PRECIPITATION =                  
           STREAMFLOW =                               STREAMFLOW =                  
     GW BOUNDARY FLOW =            115.03       GW BOUNDARY FLOW =              1.33


                                    OUT                                        OUT
                                    ---                                        ---
   EVAPOTRANSPIRATION =        5683671.77     EVAPOTRANSPIRATION =          71093.69
           STREAMFLOW =        6756771.58             STREAMFLOW =          32112.31
     GW BOUNDARY FLOW =           8507.66       GW BOUNDARY FLOW =             34.27

   INFLOWS - OUTFLOWS =        1977661.63     INFLOWS - OUTFLOWS =        -103238.95
             --------                                   --------

 TOTAL STORAGE CHANGE =        1981278.40         STORAGE CHANGE =        -103237.73
       --------------                             --------------
         LAND SURFACE =         137693.50           LAND SURFACE =         -13707.53
            SOIL ZONE =        3642145.16              SOIL ZONE =         -89485.40
     UNSATURATED ZONE =       -2635357.16       UNSATURATED ZONE =           -118.54
       SATURATED ZONE =         836796.90         SATURATED ZONE =             73.74

 OVERALL BUDGET ERROR =          -3616.78           BUDGET ERROR =             -1.21


  PERCENT DISCREPANCY =             -0.03    PERCENT DISCREPANCY =             -0.00



1
 SUMMARY VOLUMETRIC BUDGET FOR GSFLOW 
 DATE: 06 02 1991              CUMULATIVE TIME STEP:       2
 MODFLOW STRESS PERIOD     10     CURRENT TIME STEP:     245     ITERATIONS:       7

 -----------------------------------------------------------------------------------

   CUMULATIVE VOLUMES               L**3   RATES FOR THIS TIME STEP           L**3/T
   ------------------                      ------------------------

                                     IN                                         IN
                                     --                                         --
        PRECIPITATION =        1.4671D+07          PRECIPITATION =                  
           STREAMFLOW =                               STREAMFLOW =                  
     GW BOUNDARY FLOW =            124.48       GW BOUNDARY FLOW =              1.37


                                    OUT                                        OUT
                                    ---                                        ---
   EVAPOTRANSPIRATION =        6228618.43     EVAPOTRANSPIRATION =         119396.93
           STREAMFLOW =        6977842.08             STREAMFLOW =          27149.39
     GW BOUNDARY FLOW =           8746.91       GW BOUNDARY FLOW =             34.04

   INFLOWS - OUTFLOWS =        1455891.87     INFLOWS - OUTFLOWS =        -146578.99
             --------                                   --------

 TOTAL STORAGE CHANGE =        1459524.90         STORAGE CHANGE =        -146576.48
       --------------                             --------------
         LAND SURFACE =          65228.73           LAND SURFACE =         -11414.61
            SOIL ZONE =        3206629.85              SOIL ZONE =        -132047.36
     UNSATURATED ZONE =       -2647995.65       UNSATURATED ZONE =          -2721.37
       SATURATED ZONE =         835661.97         SATURATED ZONE =           -393.14

 OVERALL BUDGET ERROR =          -3633.03           BUDGET ERROR =             -2.51


  PERCENT DISCREPANCY =             -0.02    PERCENT DISCREPANCY =             -0.00



1
 SUMMARY VOLUMETRIC BUDGET FOR GSFLOW 
 DATE: 06 09 1991              CUMULATIVE TIME STEP:       9
 MODFLOW STRESS PERIOD     10     CURRENT TIME STEP:     252     ITERATIONS:       6

 -----------------------------------------------------------------------------------

   CUMULATIVE VOLUMES               L**3   RATES FOR THIS TIME STEP           L**3/T
   ------------------                      ------------------------

                                     IN                                         IN
                                     --                                         --
        PRECIPITATION =        1.4671D+07          PRECIPITATION =                  
           STREAMFLOW =                               STREAMFLOW =                  
     GW BOUNDARY FLOW =            134.24       GW BOUNDARY FLOW =              1.41


                                    OUT                                        OUT
                                    ---                                        ---
   EVAPOTRANSPIRATION =        6945028.15     EVAPOTRANSPIRATION =         166531.68
           STREAMFLOW =        7137704.38             STREAMFLOW =          19406.29
     GW BOUNDARY FLOW =           8983.99       GW BOUNDARY FLOW =             33.74

   INFLOWS - OUTFLOWS =         579392.52     INFLOWS - OUTFLOWS =        -185970.30
             --------                                   --------

 TOTAL STORAGE CHANGE =         583058.85         STORAGE CHANGE =        -185963.25
       --------------                             --------------
         LAND SURFACE =          17498.47           LAND SURFACE =          -7585.85
            SOIL ZONE =        2417618.13              SOIL ZONE =        -171032.29
     UNSATURATED ZONE =       -2680980.06       UNSATURATED ZONE =          -5876.11
       SATURATED ZONE =         828922.31         SATURATED ZONE =          -1469.00

 OVERALL BUDGET ERROR =          -3666.33           BUDGET ERROR =             -7.05


  PERCENT DISCREPANCY =             -0.02    PERCENT DISCREPANCY =             -0.00



1
 SUMMARY VOLUMETRIC BUDGET FOR GSFLOW 
 DATE: 06 16 1991              CUMULATIVE TIME STEP:      16
 MODFLOW STRESS PERIOD     10     CURRENT TIME STEP:     259     ITERATIONS:       6

 -----------------------------------------------------------------------------------

   CUMULATIVE VOLUMES               L**3   RATES FOR THIS TIME STEP           L**3/T
   ------------------                      ------------------------

                                     IN                                         IN
                                     --                                         --
        PRECIPITATION =        1.4671D+07          PRECIPITATION =                  
           STREAMFLOW =                               STREAMFLOW =                  
     GW BOUNDARY FLOW =            144.31       GW BOUNDARY FLOW =              1.46


                                    OUT                                        OUT
                                    ---                                        ---
   EVAPOTRANSPIRATION =        7902532.52     EVAPOTRANSPIRATION =         107699.83
           STREAMFLOW =        7258654.00             STREAMFLOW =          16682.62
     GW BOUNDARY FLOW =           9219.24       GW BOUNDARY FLOW =             33.53

   INFLOWS - OUTFLOWS =        -499286.65     INFLOWS - OUTFLOWS =        -124414.53
             --------                                   --------

 TOTAL STORAGE CHANGE =        -495558.95         STORAGE CHANGE =        -124405.24
       --------------                             --------------
         LAND SURFACE =            705.51           LAND SURFACE =           -399.79
            SOIL ZONE =        1448008.34              SOIL ZONE =        -106703.88
     UNSATURATED ZONE =       -2757816.16       UNSATURATED ZONE =         -14362.54
       SATURATED ZONE =         813543.35         SATURATED ZONE =          -2939.03

 OVERALL BUDGET ERROR =          -3727.70           BUDGET ERROR =             -9.29


  PERCENT DISCREPANCY =             -0.02    PERCENT DISCREPANCY =             -0.01



1
 SUMMARY VOLUMETRIC BUDGET FOR GSFLOW 
 DATE: 06 23 1991              CUMULATIVE TIME STEP:      23
 MODFLOW STRESS PERIOD     10     CURRENT TIME STEP:     266     ITERATIONS:       5

 -----------------------------------------------------------------------------------

   CUMULATIVE VOLUMES               L**3   RATES FOR THIS TIME STEP           L**3/T
   ------------------                      ------------------------

                                     IN                                         IN
                                     --                                         --
        PRECIPITATION =        1.4671D+07          PRECIPITATION =                  
           STREAMFLOW =                               STREAMFLOW =                  
     GW BOUNDARY FLOW =            154.60       GW BOUNDARY FLOW =              1.46


                                    OUT                                        OUT
                                    ---                                        ---
   EVAPOTRANSPIRATION =        8374291.92     EVAPOTRANSPIRATION =          33677.92
           STREAMFLOW =        7371987.90             STREAMFLOW =          15928.44
     GW BOUNDARY FLOW =           9453.29       GW BOUNDARY FLOW =             33.37

   INFLOWS - OUTFLOWS =       -1084603.71     INFLOWS - OUTFLOWS =         -49638.27
             --------                                   --------

 TOTAL STORAGE CHANGE =       -1080780.77         STORAGE CHANGE =         -49620.88
       --------------                             --------------
         LAND SURFACE =             27.33           LAND SURFACE =             -3.89
            SOIL ZONE =         988513.98              SOIL ZONE =         -33699.27
     UNSATURATED ZONE =       -2855545.08       UNSATURATED ZONE =         -11770.62
       SATURATED ZONE =         786222.99         SATURATED ZONE =          -4147.10

 OVERALL BUDGET ERROR =          -3822.94           BUDGET ERROR =            -17.39


  PERCENT DISCREPANCY =             -0.02    PERCENT DISCREPANCY =             -0.04



1
 SUMMARY VOLUMETRIC BUDGET FOR GSFLOW 
 DATE: 06 30 1991              CUMULATIVE TIME STEP:      30
 MODFLOW STRESS PERIOD     10     CURRENT TIME STEP:     273     ITERATIONS:       5

 -----------------------------------------------------------------------------------

   CUMULATIVE VOLUMES               L**3   RATES FOR THIS TIME STEP           L**3/T
   ------------------                      ------------------------

                                     IN                                         IN
[...]
                                    ---                                        ---
   EVAPOTRANSPIRATION =        1.4258D+08     EVAPOTRANSPIRATION =          15139.15
           STREAMFLOW =        1.2354D+08             STREAMFLOW =           2750.86
     GW BOUNDARY FLOW =          95531.04       GW BOUNDARY FLOW =             21.76

   INFLOWS - OUTFLOWS =       -2.6197D+07     INFLOWS - OUTFLOWS =         -17905.59
             --------                                   --------

 TOTAL STORAGE CHANGE =       -2.5645D+07         STORAGE CHANGE =         -17900.86
       --------------                             --------------
         LAND SURFACE =                             LAND SURFACE =                  
            SOIL ZONE =       -1983382.50              SOIL ZONE =          -3813.23
     UNSATURATED ZONE =         356020.98       UNSATURATED ZONE =          -1687.26
       SATURATED ZONE =       -2.4018D+07         SATURATED ZONE =         -12400.37

 OVERALL BUDGET ERROR =        -552012.74           BUDGET ERROR =             -4.73


  PERCENT DISCREPANCY =             -0.21    PERCENT DISCREPANCY =             -0.03



1
 SUMMARY VOLUMETRIC BUDGET FOR GSFLOW 
 DATE: 09 03 2000              CUMULATIVE TIME STEP:       3
 MODFLOW STRESS PERIOD    121     CURRENT TIME STEP:    3626     ITERATIONS:       8

 -----------------------------------------------------------------------------------

   CUMULATIVE VOLUMES               L**3   RATES FOR THIS TIME STEP           L**3/T
   ------------------                      ------------------------

                                     IN                                         IN
                                     --                                         --
        PRECIPITATION =        2.4013D+08          PRECIPITATION =                  
           STREAMFLOW =                               STREAMFLOW =                  
     GW BOUNDARY FLOW =          14950.15       GW BOUNDARY FLOW =              6.18


                                    OUT                                        OUT
                                    ---                                        ---
   EVAPOTRANSPIRATION =        1.4266D+08     EVAPOTRANSPIRATION =          28557.89
           STREAMFLOW =        1.2357D+08             STREAMFLOW =           6451.49
     GW BOUNDARY FLOW =          95684.69       GW BOUNDARY FLOW =             22.20

   INFLOWS - OUTFLOWS =       -2.6180D+07     INFLOWS - OUTFLOWS =         -35025.38
             --------                                   --------

 TOTAL STORAGE CHANGE =       -2.5628D+07         STORAGE CHANGE =         -35026.00
       --------------                             --------------
         LAND SURFACE =           8198.00           LAND SURFACE =         -28500.39
            SOIL ZONE =       -1902244.50              SOIL ZONE =             -4.96
     UNSATURATED ZONE =         344398.42       UNSATURATED ZONE =          -1567.85
       SATURATED ZONE =       -2.4078D+07         SATURATED ZONE =          -4952.80

 OVERALL BUDGET ERROR =        -552013.02           BUDGET ERROR =              0.61


  PERCENT DISCREPANCY =             -0.21    PERCENT DISCREPANCY =              0.00



1
 SUMMARY VOLUMETRIC BUDGET FOR GSFLOW 
 DATE: 09 10 2000              CUMULATIVE TIME STEP:      10
 MODFLOW STRESS PERIOD    121     CURRENT TIME STEP:    3633     ITERATIONS:      13

 -----------------------------------------------------------------------------------

   CUMULATIVE VOLUMES               L**3   RATES FOR THIS TIME STEP           L**3/T
   ------------------                      ------------------------

                                     IN                                         IN
                                     --                                         --
        PRECIPITATION =        2.4013D+08          PRECIPITATION =                  
           STREAMFLOW =                               STREAMFLOW =                  
     GW BOUNDARY FLOW =          14993.46       GW BOUNDARY FLOW =              6.19


                                    OUT                                        OUT
                                    ---                                        ---
   EVAPOTRANSPIRATION =        1.4274D+08     EVAPOTRANSPIRATION =          10708.59
           STREAMFLOW =        1.2360D+08             STREAMFLOW =           4354.86
     GW BOUNDARY FLOW =          95838.70       GW BOUNDARY FLOW =             21.97

   INFLOWS - OUTFLOWS =       -2.6296D+07     INFLOWS - OUTFLOWS =         -15079.24
             --------                                   --------

 TOTAL STORAGE CHANGE =       -2.5744D+07         STORAGE CHANGE =         -15078.53
       --------------                             --------------
         LAND SURFACE =                             LAND SURFACE =                  
            SOIL ZONE =       -1937554.93              SOIL ZONE =          -4462.98
     UNSATURATED ZONE =         332684.73       UNSATURATED ZONE =          -1697.26
       SATURATED ZONE =       -2.4139D+07         SATURATED ZONE =          -8918.29

 OVERALL BUDGET ERROR =        -552019.83           BUDGET ERROR =             -0.71


  PERCENT DISCREPANCY =             -0.21    PERCENT DISCREPANCY =             -0.00



1
 SUMMARY VOLUMETRIC BUDGET FOR GSFLOW 
 DATE: 09 17 2000              CUMULATIVE TIME STEP:      17
 MODFLOW STRESS PERIOD    121     CURRENT TIME STEP:    3640     ITERATIONS:       7

 -----------------------------------------------------------------------------------

   CUMULATIVE VOLUMES               L**3   RATES FOR THIS TIME STEP           L**3/T
   ------------------                      ------------------------

                                     IN                                         IN
                                     --                                         --
        PRECIPITATION =        2.4013D+08          PRECIPITATION =                  
           STREAMFLOW =                               STREAMFLOW =                  
     GW BOUNDARY FLOW =          15036.83       GW BOUNDARY FLOW =              6.20


                                    OUT                                        OUT
                                    ---                                        ---
   EVAPOTRANSPIRATION =        1.4283D+08     EVAPOTRANSPIRATION =          10607.00
           STREAMFLOW =        1.2363D+08             STREAMFLOW =           4066.97
     GW BOUNDARY FLOW =          95992.10       GW BOUNDARY FLOW =             21.93

   INFLOWS - OUTFLOWS =       -2.6408D+07     INFLOWS - OUTFLOWS =         -14689.70
             --------                                   --------

 TOTAL STORAGE CHANGE =       -2.5856D+07         STORAGE CHANGE =         -14688.27
       --------------                             --------------
         LAND SURFACE =                             LAND SURFACE =                  
            SOIL ZONE =       -1966098.38              SOIL ZONE =          -2987.21
     UNSATURATED ZONE =         321162.43       UNSATURATED ZONE =          -1626.09
       SATURATED ZONE =       -2.4211D+07         SATURATED ZONE =         -10074.97

 OVERALL BUDGET ERROR =        -552022.88           BUDGET ERROR =             -1.42


  PERCENT DISCREPANCY =             -0.21    PERCENT DISCREPANCY =             -0.01



1
 SUMMARY VOLUMETRIC BUDGET FOR GSFLOW 
 DATE: 09 24 2000              CUMULATIVE TIME STEP:      24
 MODFLOW STRESS PERIOD    121     CURRENT TIME STEP:    3647     ITERATIONS:       5

 -----------------------------------------------------------------------------------

   CUMULATIVE VOLUMES               L**3   RATES FOR THIS TIME STEP           L**3/T
   ------------------                      ------------------------

                                     IN                                         IN
                                     --                                         --
        PRECIPITATION =        2.4013D+08          PRECIPITATION =                  
           STREAMFLOW =                               STREAMFLOW =                  
     GW BOUNDARY FLOW =          15080.24       GW BOUNDARY FLOW =              6.20


                                    OUT                                        OUT
                                    ---                                        ---
   EVAPOTRANSPIRATION =        1.4288D+08     EVAPOTRANSPIRATION =           5168.75
           STREAMFLOW =        1.2366D+08             STREAMFLOW =           5280.29
     GW BOUNDARY FLOW =          96145.91       GW BOUNDARY FLOW =             22.06

   INFLOWS - OUTFLOWS =       -2.6496D+07     INFLOWS - OUTFLOWS =         -10464.90
             --------                                   --------

 TOTAL STORAGE CHANGE =       -2.5944D+07         STORAGE CHANGE =         -10460.37
       --------------                             --------------
         LAND SURFACE =                             LAND SURFACE =                  
            SOIL ZONE =       -1979354.64              SOIL ZONE =          -1049.18
     UNSATURATED ZONE =         310068.10       UNSATURATED ZONE =          -1556.03
       SATURATED ZONE =       -2.4274D+07         SATURATED ZONE =          -7855.17

 OVERALL BUDGET ERROR =        -552029.98           BUDGET ERROR =             -4.53


  PERCENT DISCREPANCY =             -0.21    PERCENT DISCREPANCY =             -0.04



1
 SUMMARY VOLUMETRIC BUDGET FOR GSFLOW 
 DATE: 10 01 2000              CUMULATIVE TIME STEP:       1
 MODFLOW STRESS PERIOD    122     CURRENT TIME STEP:    3654     ITERATIONS:       7

 -----------------------------------------------------------------------------------

   CUMULATIVE VOLUMES               L**3   RATES FOR THIS TIME STEP           L**3/T
   ------------------                      ------------------------

                                     IN                                         IN
                                     --                                         --
        PRECIPITATION =        2.4013D+08          PRECIPITATION =                  
           STREAMFLOW =                               STREAMFLOW =                  
     GW BOUNDARY FLOW =          15123.70       GW BOUNDARY FLOW =              6.21


                                    OUT                                        OUT
                                    ---                                        ---
   EVAPOTRANSPIRATION =        1.4294D+08     EVAPOTRANSPIRATION =           8332.02
           STREAMFLOW =        1.2369D+08             STREAMFLOW =           4379.77
     GW BOUNDARY FLOW =          96299.63       GW BOUNDARY FLOW =             21.96

   INFLOWS - OUTFLOWS =       -2.6586D+07     INFLOWS - OUTFLOWS =         -12727.54
             --------                                   --------

 TOTAL STORAGE CHANGE =       -2.6034D+07         STORAGE CHANGE =         -12727.93
       --------------                             --------------
         LAND SURFACE =                             LAND SURFACE =                  
            SOIL ZONE =       -1991053.38              SOIL ZONE =          -1527.16
     UNSATURATED ZONE =         295212.64       UNSATURATED ZONE =          -1622.34
       SATURATED ZONE =       -2.4339D+07         SATURATED ZONE =          -9578.42

 OVERALL BUDGET ERROR =        -552034.45           BUDGET ERROR =              0.39


  PERCENT DISCREPANCY =             -0.21    PERCENT DISCREPANCY =              0.00



1
 SUMMARY VOLUMETRIC BUDGET FOR GSFLOW 
 DATE: 10 08 2000              CUMULATIVE TIME STEP:       8
 MODFLOW STRESS PERIOD    122     CURRENT TIME STEP:    3661     ITERATIONS:       4

 -----------------------------------------------------------------------------------

   CUMULATIVE VOLUMES               L**3   RATES FOR THIS TIME STEP           L**3/T
   ------------------                      ------------------------

                                     IN                                         IN
                                     --                                         --
        PRECIPITATION =        2.4013D+08          PRECIPITATION =                  
           STREAMFLOW =                               STREAMFLOW =                  
     GW BOUNDARY FLOW =          15167.20       GW BOUNDARY FLOW =              6.22


                                    OUT                                        OUT
                                    ---                                        ---
   EVAPOTRANSPIRATION =        1.4299D+08     EVAPOTRANSPIRATION =           6994.67
           STREAMFLOW =        1.2372D+08             STREAMFLOW =           4788.45
     GW BOUNDARY FLOW =          96453.55       GW BOUNDARY FLOW =             22.00

   INFLOWS - OUTFLOWS =       -2.6670D+07     INFLOWS - OUTFLOWS =         -11798.90
             --------                                   --------

 TOTAL STORAGE CHANGE =       -2.6118D+07         STORAGE CHANGE =         -11781.37
       --------------                             --------------
         LAND SURFACE =                             LAND SURFACE =                  
            SOIL ZONE =       -1999698.24              SOIL ZONE =          -1133.53
     UNSATURATED ZONE =         284031.20       UNSATURATED ZONE =          -1614.85
       SATURATED ZONE =       -2.4403D+07         SATURATED ZONE =          -9032.99

 OVERALL BUDGET ERROR =        -552053.39           BUDGET ERROR =            -17.54


  PERCENT DISCREPANCY =             -0.21    PERCENT DISCREPANCY =             -0.15



1
 SUMMARY VOLUMETRIC BUDGET FOR GSFLOW 
 DATE: 10 15 2000              CUMULATIVE TIME STEP:      15
 MODFLOW STRESS PERIOD    122     CURRENT TIME STEP:    3668     ITERATIONS:       4

 -----------------------------------------------------------------------------------

   CUMULATIVE VOLUMES               L**3   RATES FOR THIS TIME STEP           L**3/T
   ------------------                      ------------------------

                                     IN                                         IN
                                     --                                         --
        PRECIPITATION =        2.4034D+08          PRECIPITATION =                  
           STREAMFLOW =                               STREAMFLOW =                  
     GW BOUNDARY FLOW =          15210.74       GW BOUNDARY FLOW =              6.22


                                    OUT                                        OUT
                                    ---                                        ---
   EVAPOTRANSPIRATION =        1.4305D+08     EVAPOTRANSPIRATION =           7486.78
           STREAMFLOW =        1.2377D+08             STREAMFLOW =           6157.66
     GW BOUNDARY FLOW =          96608.94       GW BOUNDARY FLOW =             22.16

   INFLOWS - OUTFLOWS =       -2.6560D+07     INFLOWS - OUTFLOWS =         -13660.38
             --------                                   --------

 TOTAL STORAGE CHANGE =       -2.6008D+07         STORAGE CHANGE =         -13643.17
       --------------                             --------------
         LAND SURFACE =             11.88           LAND SURFACE =            -60.12
            SOIL ZONE =       -1835658.40              SOIL ZONE =          -4836.21
     UNSATURATED ZONE =         272732.10       UNSATURATED ZONE =          -1636.86
       SATURATED ZONE =       -2.4445D+07         SATURATED ZONE =          -7109.97

 OVERALL BUDGET ERROR =        -552082.32           BUDGET ERROR =            -17.21


  PERCENT DISCREPANCY =             -0.21    PERCENT DISCREPANCY =             -0.13



1
 SUMMARY VOLUMETRIC BUDGET FOR GSFLOW 
 DATE: 10 22 2000              CUMULATIVE TIME STEP:      22
 MODFLOW STRESS PERIOD    122     CURRENT TIME STEP:    3675     ITERATIONS:       5

 -----------------------------------------------------------------------------------

   CUMULATIVE VOLUMES               L**3   RATES FOR THIS TIME STEP           L**3/T
   ------------------                      ------------------------

                                     IN                                         IN
                                     --                                         --
        PRECIPITATION =        2.4039D+08          PRECIPITATION =                  
           STREAMFLOW =                               STREAMFLOW =                  
     GW BOUNDARY FLOW =          15254.32       GW BOUNDARY FLOW =              6.23


                                    OUT                                        OUT
                                    ---                                        ---
   EVAPOTRANSPIRATION =        1.4311D+08     EVAPOTRANSPIRATION =           8693.71
           STREAMFLOW =        1.2381D+08             STREAMFLOW =           7137.79
     GW BOUNDARY FLOW =          96764.25       GW BOUNDARY FLOW =             22.29

   INFLOWS - OUTFLOWS =       -2.6617D+07     INFLOWS - OUTFLOWS =         -15847.56
             --------                                   --------

 TOTAL STORAGE CHANGE =       -2.6065D+07         STORAGE CHANGE =         -15842.85
       --------------                             --------------
         LAND SURFACE =          14940.20           LAND SURFACE =          -8673.07
            SOIL ZONE =       -1847289.18              SOIL ZONE =             30.76
     UNSATURATED ZONE =         261627.09       UNSATURATED ZONE =          -1487.57
       SATURATED ZONE =       -2.4494D+07         SATURATED ZONE =          -5712.97

 OVERALL BUDGET ERROR =        -552111.82           BUDGET ERROR =             -4.70


  PERCENT DISCREPANCY =             -0.21    PERCENT DISCREPANCY =             -0.03



1
 SUMMARY VOLUMETRIC BUDGET FOR GSFLOW 
 DATE: 10 29 2000              CUMULATIVE TIME STEP:      29
 MODFLOW STRESS PERIOD    122     CURRENT TIME STEP:    3682     ITERATIONS:       5

 -----------------------------------------------------------------------------------

   CUMULATIVE VOLUMES               L**3   RATES FOR THIS TIME STEP           L**3/T
   ------------------                      ------------------------

                                     IN                                         IN
                                     --                                         --
        PRECIPITATION =        2.4111D+08          PRECIPITATION =          24578.20
           STREAMFLOW =                               STREAMFLOW =                  
     GW BOUNDARY FLOW =          15297.92       GW BOUNDARY FLOW =              6.23


                                    OUT                                        OUT
                                    ---                                        ---
   EVAPOTRANSPIRATION =        1.4315D+08     EVAPOTRANSPIRATION =           4118.67
           STREAMFLOW =        1.2386D+08             STREAMFLOW =           7134.99
     GW BOUNDARY FLOW =          96920.22       GW BOUNDARY FLOW =             22.32

   INFLOWS - OUTFLOWS =       -2.5983D+07     INFLOWS - OUTFLOWS =          13308.45
             --------                                   --------

 TOTAL STORAGE CHANGE =       -2.5431D+07         STORAGE CHANGE =          13313.07
       --------------                             --------------
         LAND SURFACE =         498945.50           LAND SURFACE =          15332.79
            SOIL ZONE =       -1643953.67              SOIL ZONE =           5407.95
     UNSATURATED ZONE =         250657.67       UNSATURATED ZONE =          -1585.55
       SATURATED ZONE =       -2.4537D+07         SATURATED ZONE =          -5842.11

 OVERALL BUDGET ERROR =        -552133.26           BUDGET ERROR =             -4.61


  PERCENT DISCREPANCY =             -0.21    PERCENT DISCREPANCY =             -0.02



