1
 SUMMARY VOLUMETRIC BUDGET FOR GSFLOW 
 DATE: 10 07 1990              CUMULATIVE TIME STEP:       7
 MODFLOW STRESS PERIOD      2     CURRENT TIME STEP:       7     ITERATIONS:       6

 -----------------------------------------------------------------------------------

   CUMULATIVE VOLUMES               L**3   RATES FOR THIS TIME STEP           L**3/T
   ------------------                      ------------------------

                                     IN                                         IN
                                     --                                         --
        PRECIPITATION =                            PRECIPITATION =                  
           STREAMFLOW =                               STREAMFLOW =                  
     GW BOUNDARY FLOW =             84.20       GW BOUNDARY FLOW =             12.01


                                    OUT                                        OUT
                                    ---                                        ---
   EVAPOTRANSPIRATION =         395542.98     EVAPOTRANSPIRATION =          13252.38
           STREAMFLOW =         127716.68             STREAMFLOW =          18773.78
     GW BOUNDARY FLOW =            499.09       GW BOUNDARY FLOW =             71.48

   INFLOWS - OUTFLOWS =        -523674.55     INFLOWS - OUTFLOWS =         -32085.63
             --------                                   --------

 TOTAL STORAGE CHANGE =        -522937.63         STORAGE CHANGE =         -32033.49
       --------------                             --------------
         LAND SURFACE =                             LAND SURFACE =                  
            SOIL ZONE =        -365813.69              SOIL ZONE =          -8153.45
     UNSATURATED ZONE =        -219673.69       UNSATURATED ZONE =         -31920.02
       SATURATED ZONE =          62549.74         SATURATED ZONE =           8039.98

 OVERALL BUDGET ERROR =           -736.92           BUDGET ERROR =            -52.14


  PERCENT DISCREPANCY =             -0.14    PERCENT DISCREPANCY =             -0.16



1
 SUMMARY VOLUMETRIC BUDGET FOR GSFLOW 
 DATE: 10 14 1990              CUMULATIVE TIME STEP:      14
 MODFLOW STRESS PERIOD      2     CURRENT TIME STEP:      14     ITERATIONS:       5

 -----------------------------------------------------------------------------------

   CUMULATIVE VOLUMES               L**3   RATES FOR THIS TIME STEP           L**3/T
   ------------------                      ------------------------

                                     IN                                         IN
                                     --                                         --
        PRECIPITATION =                            PRECIPITATION =                  
           STREAMFLOW =                               STREAMFLOW =                  
     GW BOUNDARY FLOW =            168.09       GW BOUNDARY FLOW =             11.97


                                    OUT                                        OUT
                                    ---                                        ---
   EVAPOTRANSPIRATION =         719082.59     EVAPOTRANSPIRATION =          59451.35
           STREAMFLOW =         257786.76             STREAMFLOW =          18556.59
     GW BOUNDARY FLOW =            999.45       GW BOUNDARY FLOW =             71.52

   INFLOWS - OUTFLOWS =        -977700.72     INFLOWS - OUTFLOWS =         -78067.49
             --------                                   --------

 TOTAL STORAGE CHANGE =        -976653.78         STORAGE CHANGE =         -78028.39
       --------------                             --------------
         LAND SURFACE =                             LAND SURFACE =                  
            SOIL ZONE =        -553768.39              SOIL ZONE =         -34191.62
     UNSATURATED ZONE =        -531377.10       UNSATURATED ZONE =         -49623.21
       SATURATED ZONE =         108491.70         SATURATED ZONE =           5786.44

 OVERALL BUDGET ERROR =          -1046.94           BUDGET ERROR =            -39.09


  PERCENT DISCREPANCY =             -0.11    PERCENT DISCREPANCY =             -0.05



1
 SUMMARY VOLUMETRIC BUDGET FOR GSFLOW 
 DATE: 10 21 1990              CUMULATIVE TIME STEP:      21
 MODFLOW STRESS PERIOD      2     CURRENT TIME STEP:      21     ITERATIONS:       5

 -----------------------------------------------------------------------------------

   CUMULATIVE VOLUMES               L**3   RATES FOR THIS TIME STEP           L**3/T
   ------------------                      ------------------------

                                     IN                                         IN
                                     --                                         --
        PRECIPITATION =         188432.87          PRECIPITATION =                  
           STREAMFLOW =                               STREAMFLOW =                  
     GW BOUNDARY FLOW =            251.72       GW BOUNDARY FLOW =             11.93


                                    OUT                                        OUT
                                    ---                                        ---
   EVAPOTRANSPIRATION =         932300.37     EVAPOTRANSPIRATION =          39753.13
           STREAMFLOW =         393389.84             STREAMFLOW =          19771.71
     GW BOUNDARY FLOW =           1501.98       GW BOUNDARY FLOW =             71.97

   INFLOWS - OUTFLOWS =       -1138507.60     INFLOWS - OUTFLOWS =         -59584.88
             --------                                   --------

 TOTAL STORAGE CHANGE =       -1137172.04         STORAGE CHANGE =         -59550.41
       --------------                             --------------
         LAND SURFACE =           4395.42           LAND SURFACE =         -25675.32
            SOIL ZONE =        -504378.26              SOIL ZONE =          -7605.18
     UNSATURATED ZONE =        -787406.33       UNSATURATED ZONE =         -32101.74
       SATURATED ZONE =         150217.12         SATURATED ZONE =           5831.83

 OVERALL BUDGET ERROR =          -1335.56           BUDGET ERROR =            -34.47


  PERCENT DISCREPANCY =             -0.10    PERCENT DISCREPANCY =             -0.06



1
 SUMMARY VOLUMETRIC BUDGET FOR GSFLOW 
 DATE: 10 28 1990              CUMULATIVE TIME STEP:      28
 MODFLOW STRESS PERIOD      2     CURRENT TIME STEP:      28     ITERATIONS:       5

 -----------------------------------------------------------------------------------

   CUMULATIVE VOLUMES               L**3   RATES FOR THIS TIME STEP           L**3/T
   ------------------                      ------------------------

                                     IN                                         IN
                                     --                                         --
        PRECIPITATION =         188432.87          PRECIPITATION =                  
           STREAMFLOW =                               STREAMFLOW =                  
     GW BOUNDARY FLOW =            335.11       GW BOUNDARY FLOW =             11.90


                                    OUT                                        OUT
                                    ---                                        ---
   EVAPOTRANSPIRATION =        1196424.25     EVAPOTRANSPIRATION =          27183.28
           STREAMFLOW =         529076.12             STREAMFLOW =          19566.11
     GW BOUNDARY FLOW =           2005.57       GW BOUNDARY FLOW =             72.03

   INFLOWS - OUTFLOWS =       -1538737.96     INFLOWS - OUTFLOWS =         -46809.51
             --------                                   --------

 TOTAL STORAGE CHANGE =       -1537178.88         STORAGE CHANGE =         -46775.74
       --------------                             --------------
         LAND SURFACE =                             LAND SURFACE =                  
            SOIL ZONE =        -668431.98              SOIL ZONE =         -18215.35
     UNSATURATED ZONE =       -1052610.12       UNSATURATED ZONE =         -33214.18
       SATURATED ZONE =         183863.22         SATURATED ZONE =           4653.80

 OVERALL BUDGET ERROR =          -1559.07           BUDGET ERROR =            -33.77


  PERCENT DISCREPANCY =             -0.09    PERCENT DISCREPANCY =             -0.07



1
 SUMMARY VOLUMETRIC BUDGET FOR GSFLOW 
 DATE: 11 04 1990              CUMULATIVE TIME STEP:       4
 MODFLOW STRESS PERIOD      3     CURRENT TIME STEP:      35     ITERATIONS:       5

 -----------------------------------------------------------------------------------

   CUMULATIVE VOLUMES               L**3   RATES FOR THIS TIME STEP           L**3/T
   ------------------                      ------------------------

                                     IN                                         IN
                                     --                                         --
        PRECIPITATION =         703113.06          PRECIPITATION =                  
           STREAMFLOW =                               STREAMFLOW =                  
     GW BOUNDARY FLOW =            418.34       GW BOUNDARY FLOW =             11.91


                                    OUT                                        OUT
                                    ---                                        ---
   EVAPOTRANSPIRATION =        1287340.31     EVAPOTRANSPIRATION =          26232.46
           STREAMFLOW =         671235.78             STREAMFLOW =          20624.40
     GW BOUNDARY FLOW =           2512.83       GW BOUNDARY FLOW =             72.69

   INFLOWS - OUTFLOWS =       -1257557.53     INFLOWS - OUTFLOWS =         -46917.64
             --------                                   --------

 TOTAL STORAGE CHANGE =       -1255770.40         STORAGE CHANGE =         -46887.50
       --------------                             --------------
         LAND SURFACE =          36990.26           LAND SURFACE =         -34939.93
            SOIL ZONE =        -268915.91              SOIL ZONE =           8777.89
     UNSATURATED ZONE =       -1243111.69       UNSATURATED ZONE =         -25749.30
       SATURATED ZONE =         219266.95         SATURATED ZONE =           5023.84

 OVERALL BUDGET ERROR =          -1787.13           BUDGET ERROR =            -30.15


  PERCENT DISCREPANCY =             -0.09    PERCENT DISCREPANCY =             -0.06



1
 SUMMARY VOLUMETRIC BUDGET FOR GSFLOW 
 DATE: 11 11 1990              CUMULATIVE TIME STEP:      11
 MODFLOW STRESS PERIOD      3     CURRENT TIME STEP:      42     ITERATIONS:       4

 -----------------------------------------------------------------------------------

   CUMULATIVE VOLUMES               L**3   RATES FOR THIS TIME STEP           L**3/T
   ------------------                      ------------------------

                                     IN                                         IN
                                     --                                         --
        PRECIPITATION =         703113.06          PRECIPITATION =                  
           STREAMFLOW =                               STREAMFLOW =                  
     GW BOUNDARY FLOW =            502.35       GW BOUNDARY FLOW =             12.08


                                    OUT                                        OUT
                                    ---                                        ---
   EVAPOTRANSPIRATION =        1423911.27     EVAPOTRANSPIRATION =          27228.91
           STREAMFLOW =         816021.57             STREAMFLOW =          20565.72
     GW BOUNDARY FLOW =           3021.72       GW BOUNDARY FLOW =             72.63

   INFLOWS - OUTFLOWS =       -1539339.14     INFLOWS - OUTFLOWS =         -47855.18
             --------                                   --------

 TOTAL STORAGE CHANGE =       -1537395.79         STORAGE CHANGE =         -47843.77
       --------------                             --------------
         LAND SURFACE =            195.77           LAND SURFACE =           -519.43
            SOIL ZONE =        -365418.58              SOIL ZONE =         -25393.79
     UNSATURATED ZONE =       -1423409.26       UNSATURATED ZONE =         -25988.00
       SATURATED ZONE =         251236.28         SATURATED ZONE =           4057.44

 OVERALL BUDGET ERROR =          -1943.35           BUDGET ERROR =            -11.41


  PERCENT DISCREPANCY =             -0.09    PERCENT DISCREPANCY =             -0.02



1
 SUMMARY VOLUMETRIC BUDGET FOR GSFLOW 
 DATE: 11 18 1990              CUMULATIVE TIME STEP:      18
 MODFLOW STRESS PERIOD      3     CURRENT TIME STEP:      49     ITERATIONS:       5

 -----------------------------------------------------------------------------------

   CUMULATIVE VOLUMES               L**3   RATES FOR THIS TIME STEP           L**3/T
   ------------------                      ------------------------

                                     IN                                         IN
                                     --                                         --
        PRECIPITATION =         747883.35          PRECIPITATION =                  
           STREAMFLOW =                               STREAMFLOW =                  
     GW BOUNDARY FLOW =            587.77       GW BOUNDARY FLOW =             12.29


                                    OUT                                        OUT
                                    ---                                        ---
   EVAPOTRANSPIRATION =        1533076.10     EVAPOTRANSPIRATION =           5857.35
           STREAMFLOW =         960902.41             STREAMFLOW =          20864.88
     GW BOUNDARY FLOW =           3530.50       GW BOUNDARY FLOW =             72.75

   INFLOWS - OUTFLOWS =       -1749037.89     INFLOWS - OUTFLOWS =         -26782.68
             --------                                   --------

 TOTAL STORAGE CHANGE =       -1746949.93         STORAGE CHANGE =         -26755.56
       --------------                             --------------
         LAND SURFACE =           5912.97           LAND SURFACE =          -3365.44
            SOIL ZONE =        -427152.54              SOIL ZONE =          -1866.82
     UNSATURATED ZONE =       -1604075.35       UNSATURATED ZONE =         -25348.97
       SATURATED ZONE =         278364.99         SATURATED ZONE =           3825.66

 OVERALL BUDGET ERROR =          -2087.96           BUDGET ERROR =            -27.13


  PERCENT DISCREPANCY =             -0.08    PERCENT DISCREPANCY =             -0.10



1
 SUMMARY VOLUMETRIC BUDGET FOR GSFLOW 
 DATE: 11 25 1990              CUMULATIVE TIME STEP:      25
 MODFLOW STRESS PERIOD      3     CURRENT TIME STEP:      56     ITERATIONS:       4

 -----------------------------------------------------------------------------------

   CUMULATIVE VOLUMES               L**3   RATES FOR THIS TIME STEP           L**3/T
   ------------------                      ------------------------

                                     IN                                         IN
                                     --                                         --
        PRECIPITATION =        1009043.38          PRECIPITATION =         186542.88
           STREAMFLOW =                               STREAMFLOW =                  
     GW BOUNDARY FLOW =            674.79       GW BOUNDARY FLOW =             12.54


                                    OUT                                        OUT
                                    ---                                        ---
   EVAPOTRANSPIRATION =        1596985.98     EVAPOTRANSPIRATION =           6313.90
           STREAMFLOW =        1108246.30             STREAMFLOW =          21118.16
     GW BOUNDARY FLOW =           4040.23       GW BOUNDARY FLOW =             72.84

   INFLOWS - OUTFLOWS =       -1699554.35     INFLOWS - OUTFLOWS =         159050.51
             --------                                   --------

 TOTAL STORAGE CHANGE =       -1697346.82         STORAGE CHANGE =         159059.63
       --------------                             --------------
         LAND SURFACE =          37126.34           LAND SURFACE =          20235.48
            SOIL ZONE =        -259508.99              SOIL ZONE =         160218.65
     UNSATURATED ZONE =       -1781906.55       UNSATURATED ZONE =         -24911.81
       SATURATED ZONE =         306942.38         SATURATED ZONE =           3517.31

 OVERALL BUDGET ERROR =          -2207.53           BUDGET ERROR =             -9.12


  PERCENT DISCREPANCY =             -0.08    PERCENT DISCREPANCY =             -0.00



1
 SUMMARY VOLUMETRIC BUDGET FOR GSFLOW 
 DATE: 12 02 1990              CUMULATIVE TIME STEP:       2
 MODFLOW STRESS PERIOD      4     CURRENT TIME STEP:      63     ITERATIONS:       6

 -----------------------------------------------------------------------------------

   CUMULATIVE VOLUMES               L**3   RATES FOR THIS TIME STEP           L**3/T
   ------------------                      ------------------------

                                     IN                                         IN
                                     --                                         --
        PRECIPITATION =        1449284.55          PRECIPITATION =                  
           STREAMFLOW =                               STREAMFLOW =                  
     GW BOUNDARY FLOW =            763.46       GW BOUNDARY FLOW =             12.77


                                    OUT                                        OUT
                                    ---                                        ---
   EVAPOTRANSPIRATION =        1604856.84     EVAPOTRANSPIRATION =            374.54
           STREAMFLOW =        1254414.50             STREAMFLOW =          20921.71
     GW BOUNDARY FLOW =           4550.12       GW BOUNDARY FLOW =             72.85

   INFLOWS - OUTFLOWS =       -1413773.45     INFLOWS - OUTFLOWS =         -21356.33
             --------                                   --------

 TOTAL STORAGE CHANGE =       -1411438.58         STORAGE CHANGE =         -21336.43
       --------------                             --------------
         LAND SURFACE =         437197.96           LAND SURFACE =           -451.19
            SOIL ZONE =        -226322.56              SOIL ZONE =            157.30
     UNSATURATED ZONE =       -1954965.37       UNSATURATED ZONE =         -24515.61
       SATURATED ZONE =         332651.38         SATURATED ZONE =           3473.07

 OVERALL BUDGET ERROR =          -2334.86           BUDGET ERROR =            -19.90


  PERCENT DISCREPANCY =             -0.08    PERCENT DISCREPANCY =             -0.09



1
 SUMMARY VOLUMETRIC BUDGET FOR GSFLOW 
 DATE: 12 09 1990              CUMULATIVE TIME STEP:       9
 MODFLOW STRESS PERIOD      4     CURRENT TIME STEP:      70     ITERATIONS:       4

 -----------------------------------------------------------------------------------

   CUMULATIVE VOLUMES               L**3   RATES FOR THIS TIME STEP           L**3/T
   ------------------                      ------------------------

                                     IN                                         IN
                                     --                                         --
        PRECIPITATION =        1449284.55          PRECIPITATION =                  
           STREAMFLOW =                               STREAMFLOW =                  
     GW BOUNDARY FLOW =            853.72       GW BOUNDARY FLOW =             12.98


                                    OUT                                        OUT
                                    ---                                        ---
   EVAPOTRANSPIRATION =        1698431.98     EVAPOTRANSPIRATION =          21006.26
           STREAMFLOW =        1402188.46             STREAMFLOW =          21166.44
     GW BOUNDARY FLOW =           5060.23       GW BOUNDARY FLOW =             72.88

   INFLOWS - OUTFLOWS =       -1655542.39     INFLOWS - OUTFLOWS =         -42232.60
             --------                                   --------

 TOTAL STORAGE CHANGE =       -1653164.11         STORAGE CHANGE =         -42230.09
       --------------                             --------------
         LAND SURFACE =          41512.44           LAND SURFACE =         -36212.48
            SOIL ZONE =          78174.07              SOIL ZONE =          16026.09
     UNSATURATED ZONE =       -2127544.85       UNSATURATED ZONE =         -24971.47
       SATURATED ZONE =         354694.24         SATURATED ZONE =           2927.77

 OVERALL BUDGET ERROR =          -2378.28           BUDGET ERROR =             -2.51


  PERCENT DISCREPANCY =             -0.08    PERCENT DISCREPANCY =             -0.01



1
 SUMMARY VOLUMETRIC BUDGET FOR GSFLOW 
 DATE: 12 16 1990              CUMULATIVE TIME STEP:      16
 MODFLOW STRESS PERIOD      4     CURRENT TIME STEP:      77     ITERATIONS:       4

 -----------------------------------------------------------------------------------

   CUMULATIVE VOLUMES               L**3   RATES FOR THIS TIME STEP           L**3/T
   ------------------                      ------------------------

                                     IN                                         IN
                                     --                                         --
        PRECIPITATION =        1804962.84          PRECIPITATION =                  
           STREAMFLOW =                               STREAMFLOW =                  
     GW BOUNDARY FLOW =            945.45       GW BOUNDARY FLOW =             13.19


                                    OUT                                        OUT
                                    ---                                        ---
   EVAPOTRANSPIRATION =        1739204.60     EVAPOTRANSPIRATION =                  
           STREAMFLOW =        1550783.04             STREAMFLOW =          21262.48
     GW BOUNDARY FLOW =           5570.45       GW BOUNDARY FLOW =             72.90

   INFLOWS - OUTFLOWS =       -1489649.80     INFLOWS - OUTFLOWS =         -21322.18
             --------                                   --------

 TOTAL STORAGE CHANGE =       -1487272.62         STORAGE CHANGE =         -21321.81
       --------------                             --------------
         LAND SURFACE =         187163.75           LAND SURFACE =                  
            SOIL ZONE =         249057.32              SOIL ZONE =             83.48
     UNSATURATED ZONE =       -2297179.40       UNSATURATED ZONE =         -23941.32
       SATURATED ZONE =         373685.72         SATURATED ZONE =           2536.03

 OVERALL BUDGET ERROR =          -2377.18           BUDGET ERROR =             -0.38


  PERCENT DISCREPANCY =             -0.07    PERCENT DISCREPANCY =             -0.00



1
 SUMMARY VOLUMETRIC BUDGET FOR GSFLOW 
 DATE: 12 23 1990              CUMULATIVE TIME STEP:      23
 MODFLOW STRESS PERIOD      4     CURRENT TIME STEP:      84     ITERATIONS:       4

 -----------------------------------------------------------------------------------

   CUMULATIVE VOLUMES               L**3   RATES FOR THIS TIME STEP           L**3/T
   ------------------                      ------------------------

                                     IN                                         IN
                                     --                                         --
        PRECIPITATION =        2276236.55          PRECIPITATION =                  
           STREAMFLOW =                               STREAMFLOW =                  
     GW BOUNDARY FLOW =           1038.42       GW BOUNDARY FLOW =             13.35


                                    OUT                                        OUT
                                    ---                                        ---
   EVAPOTRANSPIRATION =        1740580.60     EVAPOTRANSPIRATION =                  
           STREAMFLOW =        1699853.76             STREAMFLOW =          21318.59
     GW BOUNDARY FLOW =           6080.75       GW BOUNDARY FLOW =             72.90

   INFLOWS - OUTFLOWS =       -1169240.14     INFLOWS - OUTFLOWS =         -21378.14
             --------                                   --------

 TOTAL STORAGE CHANGE =       -1166851.78         STORAGE CHANGE =         -21375.41
       --------------                             --------------
         LAND SURFACE =         657066.96           LAND SURFACE =                  
            SOIL ZONE =         249647.29              SOIL ZONE =             84.86
     UNSATURATED ZONE =       -2463569.83       UNSATURATED ZONE =         -23632.19
       SATURATED ZONE =         390003.80         SATURATED ZONE =           2171.92

 OVERALL BUDGET ERROR =          -2388.36           BUDGET ERROR =             -2.72


  PERCENT DISCREPANCY =             -0.07    PERCENT DISCREPANCY =             -0.01



1
 SUMMARY VOLUMETRIC BUDGET FOR GSFLOW 
 DATE: 12 30 1990              CUMULATIVE TIME STEP:      30
 MODFLOW STRESS PERIOD      4     CURRENT TIME STEP:      91     ITERATIONS:       4

 -----------------------------------------------------------------------------------

   CUMULATIVE VOLUMES               L**3   RATES FOR THIS TIME STEP           L**3/T
   ------------------                      ------------------------

                                     IN                                         IN
                                     --                                         --
        PRECIPITATION =        2276236.55          PRECIPITATION =                  
           STREAMFLOW =                               STREAMFLOW =                  
     GW BOUNDARY FLOW =           1132.59       GW BOUNDARY FLOW =             13.52


                                    OUT                                        OUT
                                    ---                                        ---
   EVAPOTRANSPIRATION =        1741333.33     EVAPOTRANSPIRATION =                  
           STREAMFLOW =        1849220.12             STREAMFLOW =          21350.63
     GW BOUNDARY FLOW =           6591.08       GW BOUNDARY FLOW =             72.91

   INFLOWS - OUTFLOWS =       -1319775.39     INFLOWS - OUTFLOWS =         -21410.02
             --------                                   --------

 TOTAL STORAGE CHANGE =       -1317328.92         STORAGE CHANGE =         -21405.03
       --------------                             --------------
         LAND SURFACE =         656314.47           LAND SURFACE =                  
            SOIL ZONE =         250246.08              SOIL ZONE =             86.01
     UNSATURATED ZONE =       -2627772.49       UNSATURATED ZONE =         -23320.18
       SATURATED ZONE =         403883.03         SATURATED ZONE =           1829.14

 OVERALL BUDGET ERROR =          -2446.47           BUDGET ERROR =             -4.99


  PERCENT DISCREPANCY =             -0.07    PERCENT DISCREPANCY =             -0.02



1
 SUMMARY VOLUMETRIC BUDGET FOR GSFLOW 
 DATE: 01 06 1991              CUMULATIVE TIME STEP:       6
 MODFLOW STRESS PERIOD      5     CURRENT TIME STEP:      98     ITERATIONS:       4

 -----------------------------------------------------------------------------------

   CUMULATIVE VOLUMES               L**3   RATES FOR THIS TIME STEP           L**3/T
   ------------------                      ------------------------

                                     IN                                         IN
                                     --                                         --
        PRECIPITATION =        2276236.55          PRECIPITATION =                  
           STREAMFLOW =                               STREAMFLOW =                  
     GW BOUNDARY FLOW =           1227.76       GW BOUNDARY FLOW =             13.65


                                    OUT                                        OUT
                                    ---                                        ---
   EVAPOTRANSPIRATION =        1764661.27     EVAPOTRANSPIRATION =           2587.35
           STREAMFLOW =        1998770.14             STREAMFLOW =          21374.10
     GW BOUNDARY FLOW =           7101.42       GW BOUNDARY FLOW =             72.90

   INFLOWS - OUTFLOWS =       -1493068.52     INFLOWS - OUTFLOWS =         -24020.70
             --------                                   --------

 TOTAL STORAGE CHANGE =       -1490581.10         STORAGE CHANGE =         -24014.07
       --------------                             --------------
         LAND SURFACE =         548041.04           LAND SURFACE =          -6127.39
            SOIL ZONE =         335884.88              SOIL ZONE =           3634.35
     UNSATURATED ZONE =       -2790076.73       UNSATURATED ZONE =         -23062.39
       SATURATED ZONE =         415569.71         SATURATED ZONE =           1541.36

 OVERALL BUDGET ERROR =          -2487.42           BUDGET ERROR =             -6.64


  PERCENT DISCREPANCY =             -0.07    PERCENT DISCREPANCY =             -0.03



1
 SUMMARY VOLUMETRIC BUDGET FOR GSFLOW 
 DATE: 01 13 1991              CUMULATIVE TIME STEP:      13
 MODFLOW STRESS PERIOD      5     CURRENT TIME STEP:     105     ITERATIONS:       6

 -----------------------------------------------------------------------------------

   CUMULATIVE VOLUMES               L**3   RATES FOR THIS TIME STEP           L**3/T
   ------------------                      ------------------------

                                     IN                                         IN
                                     --                                         --
        PRECIPITATION =        2596386.94          PRECIPITATION =          10327.43
           STREAMFLOW =                               STREAMFLOW =                  
     GW BOUNDARY FLOW =           1323.80       GW BOUNDARY FLOW =             13.78


                                    OUT                                        OUT
                                    ---                                        ---
   EVAPOTRANSPIRATION =        1826359.67     EVAPOTRANSPIRATION =          18003.36
           STREAMFLOW =        2148209.35             STREAMFLOW =          21234.35
     GW BOUNDARY FLOW =           7611.66       GW BOUNDARY FLOW =             72.86

   INFLOWS - OUTFLOWS =       -1384469.94     INFLOWS - OUTFLOWS =         -28969.36
             --------                                   --------

 TOTAL STORAGE CHANGE =       -1381922.33         STORAGE CHANGE =         -28955.66
       --------------                             --------------
         LAND SURFACE =         512042.81           LAND SURFACE =        -134113.87
            SOIL ZONE =         634341.06              SOIL ZONE =         128907.35
     UNSATURATED ZONE =       -2953134.40       UNSATURATED ZONE =         -24788.27
       SATURATED ZONE =         424828.20         SATURATED ZONE =           1039.13

 OVERALL BUDGET ERROR =          -2547.61           BUDGET ERROR =            -13.70


  PERCENT DISCREPANCY =             -0.06    PERCENT DISCREPANCY =             -0.03



1
 SUMMARY VOLUMETRIC BUDGET FOR GSFLOW 
 DATE: 01 20 1991              CUMULATIVE TIME STEP:      20
 MODFLOW STRESS PERIOD      5     CURRENT TIME STEP:     112     ITERATIONS:       4

 -----------------------------------------------------------------------------------

   CUMULATIVE VOLUMES               L**3   RATES FOR THIS TIME STEP           L**3/T
   ------------------                      ------------------------

                                     IN                                         IN
                                     --                                         --
        PRECIPITATION =        2596386.94          PRECIPITATION =                  
           STREAMFLOW =                               STREAMFLOW =                  
     GW BOUNDARY FLOW =           1420.74       GW BOUNDARY FLOW =             13.89


                                    OUT                                        OUT
                                    ---                                        ---
   EVAPOTRANSPIRATION =        1896523.62     EVAPOTRANSPIRATION =           1892.68
           STREAMFLOW =        2297747.49             STREAMFLOW =          21383.01
     GW BOUNDARY FLOW =           8121.91       GW BOUNDARY FLOW =             72.89

   INFLOWS - OUTFLOWS =       -1604585.34     INFLOWS - OUTFLOWS =         -23334.69
             --------                                   --------

 TOTAL STORAGE CHANGE =       -1601968.28         STORAGE CHANGE =         -23325.03
       --------------                             --------------
         LAND SURFACE =         353293.53           LAND SURFACE =           -254.70
            SOIL ZONE =         727140.51              SOIL ZONE =          -1446.62
     UNSATURATED ZONE =       -3114390.80       UNSATURATED ZONE =         -22539.80
       SATURATED ZONE =         431988.47         SATURATED ZONE =            916.08

 OVERALL BUDGET ERROR =          -2617.06           BUDGET ERROR =             -9.65


  PERCENT DISCREPANCY =             -0.06    PERCENT DISCREPANCY =             -0.04



1
 SUMMARY VOLUMETRIC BUDGET FOR GSFLOW 
 DATE: 01 27 1991              CUMULATIVE TIME STEP:      27
 MODFLOW STRESS PERIOD      5     CURRENT TIME STEP:     119     ITERATIONS:       4

 -----------------------------------------------------------------------------------

   CUMULATIVE VOLUMES               L**3   RATES FOR THIS TIME STEP           L**3/T
   ------------------                      ------------------------

                                     IN                                         IN
                                     --                                         --
        PRECIPITATION =        2596386.94          PRECIPITATION =                  
           STREAMFLOW =                               STREAMFLOW =                  
     GW BOUNDARY FLOW =           1518.38       GW BOUNDARY FLOW =             13.99


                                    OUT                                        OUT
                                    ---                                        ---
   EVAPOTRANSPIRATION =        1918845.27     EVAPOTRANSPIRATION =           1244.74
           STREAMFLOW =        2447425.64             STREAMFLOW =          21391.59
     GW BOUNDARY FLOW =           8632.12       GW BOUNDARY FLOW =             72.88

   INFLOWS - OUTFLOWS =       -1776997.71     INFLOWS - OUTFLOWS =         -22695.22
             --------                                   --------

 TOTAL STORAGE CHANGE =       -1774303.82         STORAGE CHANGE =         -22683.54
       --------------                             --------------
         LAND SURFACE =         325482.21           LAND SURFACE =            -73.52
            SOIL ZONE =         735100.58              SOIL ZONE =          -1064.70
     UNSATURATED ZONE =       -3272079.15       UNSATURATED ZONE =         -22165.43
       SATURATED ZONE =         437192.54         SATURATED ZONE =            620.11

 OVERALL BUDGET ERROR =          -2693.89           BUDGET ERROR =            -11.68


  PERCENT DISCREPANCY =             -0.06    PERCENT DISCREPANCY =             -0.05



1
 SUMMARY VOLUMETRIC BUDGET FOR GSFLOW 
 DATE: 02 03 1991              CUMULATIVE TIME STEP:       3
 MODFLOW STRESS PERIOD      6     CURRENT TIME STEP:     126     ITERATIONS:       4

 -----------------------------------------------------------------------------------

   CUMULATIVE VOLUMES               L**3   RATES FOR THIS TIME STEP           L**3/T
   ------------------                      ------------------------

                                     IN                                         IN
                                     --                                         --
        PRECIPITATION =        3228422.31          PRECIPITATION =          30459.53
           STREAMFLOW =                               STREAMFLOW =                  
     GW BOUNDARY FLOW =           1616.59       GW BOUNDARY FLOW =             14.06


                                    OUT                                        OUT
                                    ---                                        ---
   EVAPOTRANSPIRATION =        2023825.32     EVAPOTRANSPIRATION =          20829.97
           STREAMFLOW =        2597048.18             STREAMFLOW =          21391.49
     GW BOUNDARY FLOW =           9142.25       GW BOUNDARY FLOW =             72.87

   INFLOWS - OUTFLOWS =       -1399976.85     INFLOWS - OUTFLOWS =         -11820.73
             --------                                   --------

 TOTAL STORAGE CHANGE =       -1397190.59         STORAGE CHANGE =         -11807.00
       --------------                             --------------
         LAND SURFACE =         146751.00           LAND SURFACE =         -24802.24
            SOIL ZONE =        1447510.24              SOIL ZONE =          34491.29
     UNSATURATED ZONE =       -3431622.76       UNSATURATED ZONE =         -21831.63
       SATURATED ZONE =         440170.93         SATURATED ZONE =            335.58

 OVERALL BUDGET ERROR =          -2786.26           BUDGET ERROR =            -13.74


  PERCENT DISCREPANCY =             -0.06    PERCENT DISCREPANCY =             -0.03



1
 SUMMARY VOLUMETRIC BUDGET FOR GSFLOW 
 DATE: 02 10 1991              CUMULATIVE TIME STEP:      10
 MODFLOW STRESS PERIOD      6     CURRENT TIME STEP:     133     ITERATIONS:       4

 -----------------------------------------------------------------------------------

   CUMULATIVE VOLUMES               L**3   RATES FOR THIS TIME STEP           L**3/T
   ------------------                      ------------------------

                                     IN                                         IN
                                     --                                         --
        PRECIPITATION =        3510173.01          PRECIPITATION =                  
           STREAMFLOW =                               STREAMFLOW =                  
     GW BOUNDARY FLOW =           1715.43       GW BOUNDARY FLOW =             14.16


                                    OUT                                        OUT
                                    ---                                        ---
   EVAPOTRANSPIRATION =        2191666.31     EVAPOTRANSPIRATION =          25972.46
           STREAMFLOW =        2746961.92             STREAMFLOW =          21417.16
     GW BOUNDARY FLOW =           9652.32       GW BOUNDARY FLOW =             72.86

   INFLOWS - OUTFLOWS =       -1436392.10     INFLOWS - OUTFLOWS =         -47448.32
             --------                                   --------

 TOTAL STORAGE CHANGE =       -1433499.27         STORAGE CHANGE =         -47431.79
       --------------                             --------------
         LAND SURFACE =          63774.58           LAND SURFACE =         -10017.74
            SOIL ZONE =        1634782.65              SOIL ZONE =         -17267.33
     UNSATURATED ZONE =       -3573473.76       UNSATURATED ZONE =         -20193.96
       SATURATED ZONE =         441417.26         SATURATED ZONE =             47.24

 OVERALL BUDGET ERROR =          -2892.83           BUDGET ERROR =            -16.53


  PERCENT DISCREPANCY =             -0.06    PERCENT DISCREPANCY =             -0.03



1
 SUMMARY VOLUMETRIC BUDGET FOR GSFLOW 
 DATE: 02 17 1991              CUMULATIVE TIME STEP:      17
 MODFLOW STRESS PERIOD      6     CURRENT TIME STEP:     140     ITERATIONS:       4

 -----------------------------------------------------------------------------------

   CUMULATIVE VOLUMES               L**3   RATES FOR THIS TIME STEP           L**3/T
   ------------------                      ------------------------

                                     IN                                         IN
                                     --                                         --
        PRECIPITATION =        3510173.01          PRECIPITATION =                  
           STREAMFLOW =                               STREAMFLOW =                  
     GW BOUNDARY FLOW =           1814.90       GW BOUNDARY FLOW =             14.24


                                    OUT                                        OUT
                                    ---                                        ---
   EVAPOTRANSPIRATION =        2435618.18     EVAPOTRANSPIRATION =          23147.97
           STREAMFLOW =        2896846.67             STREAMFLOW =          21407.33
     GW BOUNDARY FLOW =          10162.29       GW BOUNDARY FLOW =             72.85

   INFLOWS - OUTFLOWS =       -1830639.22     INFLOWS - OUTFLOWS =         -44613.91
             --------                                   --------

 TOTAL STORAGE CHANGE =       -1827621.54         STORAGE CHANGE =         -44594.77
       --------------                             --------------
         LAND SURFACE =          10625.62           LAND SURFACE =          -1107.15
            SOIL ZONE =        1435124.07              SOIL ZONE =         -23427.01
     UNSATURATED ZONE =       -3714080.65       UNSATURATED ZONE =         -19822.19
       SATURATED ZONE =         440709.42         SATURATED ZONE =           -238.42

 OVERALL BUDGET ERROR =          -3017.68           BUDGET ERROR =            -19.14


  PERCENT DISCREPANCY =             -0.06    PERCENT DISCREPANCY =             -0.04



1
 SUMMARY VOLUMETRIC BUDGET FOR GSFLOW 
 DATE: 02 24 1991              CUMULATIVE TIME STEP:      24
 MODFLOW STRESS PERIOD      6     CURRENT TIME STEP:     147     ITERATIONS:       4

 -----------------------------------------------------------------------------------

   CUMULATIVE VOLUMES               L**3   RATES FOR THIS TIME STEP           L**3/T
   ------------------                      ------------------------

                                     IN                                         IN
                                     --                                         --
        PRECIPITATION =        3510173.01          PRECIPITATION =                  
           STREAMFLOW =                               STREAMFLOW =                  
     GW BOUNDARY FLOW =           1914.89       GW BOUNDARY FLOW =             14.31


                                    OUT                                        OUT
                                    ---                                        ---
   EVAPOTRANSPIRATION =        2625596.21     EVAPOTRANSPIRATION =          17462.91
           STREAMFLOW =        3046031.25             STREAMFLOW =          21220.49
     GW BOUNDARY FLOW =          10672.12       GW BOUNDARY FLOW =             72.82

   INFLOWS - OUTFLOWS =       -2170211.69     INFLOWS - OUTFLOWS =         -38741.91
             --------                                   --------

 TOTAL STORAGE CHANGE =       -2167048.21         STORAGE CHANGE =         -38719.73
       --------------                             --------------
         LAND SURFACE =           3951.44           LAND SURFACE =           -125.27
            SOIL ZONE =        1246808.05              SOIL ZONE =         -17627.66
     UNSATURATED ZONE =       -3854091.00       UNSATURATED ZONE =         -20120.36
       SATURATED ZONE =         436283.31         SATURATED ZONE =           -846.43

 OVERALL BUDGET ERROR =          -3163.48           BUDGET ERROR =            -22.18


  PERCENT DISCREPANCY =             -0.06    PERCENT DISCREPANCY =             -0.06



1
 SUMMARY VOLUMETRIC BUDGET FOR GSFLOW 
 DATE: 03 03 1991              CUMULATIVE TIME STEP:       3
 MODFLOW STRESS PERIOD      7     CURRENT TIME STEP:     154     ITERATIONS:       4

 -----------------------------------------------------------------------------------

   CUMULATIVE VOLUMES               L**3   RATES FOR THIS TIME STEP           L**3/T
   ------------------                      ------------------------

                                     IN                                         IN
                                     --                                         --
        PRECIPITATION =        6220189.63          PRECIPITATION =        1243187.24
           STREAMFLOW =                               STREAMFLOW =                  
     GW BOUNDARY FLOW =           2015.31       GW BOUNDARY FLOW =             14.37


                                    OUT                                        OUT
                                    ---                                        ---
   EVAPOTRANSPIRATION =        2749689.41     EVAPOTRANSPIRATION =           8516.18
           STREAMFLOW =        3194079.64             STREAMFLOW =          21324.49
     GW BOUNDARY FLOW =          11181.50       GW BOUNDARY FLOW =             72.81

   INFLOWS - OUTFLOWS =         267254.39     INFLOWS - OUTFLOWS =        1213288.14
             --------                                   --------

 TOTAL STORAGE CHANGE =         270579.17         STORAGE CHANGE =        1213311.10
       --------------                             --------------
         LAND SURFACE =        2158411.83           LAND SURFACE =         700230.68
            SOIL ZONE =        1679247.39              SOIL ZONE =         533648.57
     UNSATURATED ZONE =       -3996136.66       UNSATURATED ZONE =         -19661.26
       SATURATED ZONE =         429056.61         SATURATED ZONE =           -906.89

 OVERALL BUDGET ERROR =          -3324.78           BUDGET ERROR =            -22.96


  PERCENT DISCREPANCY =             -0.05    PERCENT DISCREPANCY =             -0.00



1
 SUMMARY VOLUMETRIC BUDGET FOR GSFLOW 
 DATE: 03 10 1991              CUMULATIVE TIME STEP:      10
 MODFLOW STRESS PERIOD      7     CURRENT TIME STEP:     161     ITERATIONS:       4

 -----------------------------------------------------------------------------------

   CUMULATIVE VOLUMES               L**3   RATES FOR THIS TIME STEP           L**3/T
   ------------------                      ------------------------

                                     IN                                         IN
                                     --                                         --
        PRECIPITATION =        8746030.42          PRECIPITATION =          32888.55
           STREAMFLOW =                               STREAMFLOW =                  
     GW BOUNDARY FLOW =           2115.71       GW BOUNDARY FLOW =             14.38


                                    OUT                                        OUT
                                    ---                                        ---
   EVAPOTRANSPIRATION =        2803316.33     EVAPOTRANSPIRATION =           7370.60
           STREAMFLOW =        4174738.15             STREAMFLOW =          22454.29
     GW BOUNDARY FLOW =          11707.48       GW BOUNDARY FLOW =             72.90

   INFLOWS - OUTFLOWS =        1758384.18     INFLOWS - OUTFLOWS =           3005.15
             --------                                   --------

 TOTAL STORAGE CHANGE =        1761839.42         STORAGE CHANGE =           3029.47
       --------------                             --------------
         LAND SURFACE =        2235698.36           LAND SURFACE =          -4542.91
            SOIL ZONE =        3150815.52              SOIL ZONE =          15952.94
     UNSATURATED ZONE =       -4052629.10       UNSATURATED ZONE =          -7611.86
       SATURATED ZONE =         427954.64         SATURATED ZONE =           -768.69

 OVERALL BUDGET ERROR =          -3455.23           BUDGET ERROR =            -24.33


  PERCENT DISCREPANCY =             -0.04    PERCENT DISCREPANCY =             -0.07



1
 SUMMARY VOLUMETRIC BUDGET FOR GSFLOW 
 DATE: 03 17 1991              CUMULATIVE TIME STEP:      17
 MODFLOW STRESS PERIOD      7     CURRENT TIME STEP:     168     ITERATIONS:       4

 -----------------------------------------------------------------------------------

   CUMULATIVE VOLUMES               L**3   RATES FOR THIS TIME STEP           L**3/T
   ------------------                      ------------------------

                                     IN                                         IN
                                     --                                         --
        PRECIPITATION =        9897129.71          PRECIPITATION =         157865.04
           STREAMFLOW =                               STREAMFLOW =                  
     GW BOUNDARY FLOW =           2216.63       GW BOUNDARY FLOW =             14.44


                                    OUT                                        OUT
                                    ---                                        ---
   EVAPOTRANSPIRATION =        2826299.39     EVAPOTRANSPIRATION =           6893.73
           STREAMFLOW =        4339713.88             STREAMFLOW =          25344.63
     GW BOUNDARY FLOW =          12217.76       GW BOUNDARY FLOW =             72.92

   INFLOWS - OUTFLOWS =        2721115.31     INFLOWS - OUTFLOWS =         125568.20
             --------                                   --------

 TOTAL STORAGE CHANGE =        2724728.71         STORAGE CHANGE =         125593.77
       --------------                             --------------
         LAND SURFACE =        3338153.20           LAND SURFACE =         123394.04
            SOIL ZONE =        3071065.58              SOIL ZONE =          11672.71
     UNSATURATED ZONE =       -4106898.09       UNSATURATED ZONE =          -8585.69
       SATURATED ZONE =         422408.02         SATURATED ZONE =           -887.29

 OVERALL BUDGET ERROR =          -3613.39           BUDGET ERROR =            -25.57


  PERCENT DISCREPANCY =             -0.04    PERCENT DISCREPANCY =             -0.02



1
 SUMMARY VOLUMETRIC BUDGET FOR GSFLOW 
 DATE: 03 24 1991              CUMULATIVE TIME STEP:      24
 MODFLOW STRESS PERIOD      7     CURRENT TIME STEP:     175     ITERATIONS:       4

 -----------------------------------------------------------------------------------

   CUMULATIVE VOLUMES               L**3   RATES FOR THIS TIME STEP           L**3/T
   ------------------                      ------------------------

                                     IN                                         IN
                                     --                                         --
        PRECIPITATION =        1.1673D+07          PRECIPITATION =        1230031.83
           STREAMFLOW =                               STREAMFLOW =                  
     GW BOUNDARY FLOW =           2317.95       GW BOUNDARY FLOW =             14.49


                                    OUT                                        OUT
                                    ---                                        ---
   EVAPOTRANSPIRATION =        2859453.48     EVAPOTRANSPIRATION =           3916.18
           STREAMFLOW =        4519118.56             STREAMFLOW =          25981.09
     GW BOUNDARY FLOW =          12727.78       GW BOUNDARY FLOW =             72.82

   INFLOWS - OUTFLOWS =        4284129.62     INFLOWS - OUTFLOWS =        1200076.24
             --------                                   --------

 TOTAL STORAGE CHANGE =        4287919.17         STORAGE CHANGE =        1200103.18
       --------------                             --------------
         LAND SURFACE =        5073781.79           LAND SURFACE =        1227482.51
            SOIL ZONE =        2967115.91              SOIL ZONE =         -17187.31
     UNSATURATED ZONE =       -4168465.01       UNSATURATED ZONE =          -9133.79
       SATURATED ZONE =         415486.47         SATURATED ZONE =          -1058.24

 OVERALL BUDGET ERROR =          -3789.54           BUDGET ERROR =            -26.94


  PERCENT DISCREPANCY =             -0.03    PERCENT DISCREPANCY =             -0.00



1
 SUMMARY VOLUMETRIC BUDGET FOR GSFLOW 
 DATE: 03 31 1991              CUMULATIVE TIME STEP:      31
 MODFLOW STRESS PERIOD      7     CURRENT TIME STEP:     182     ITERATIONS:       4

 -----------------------------------------------------------------------------------

   CUMULATIVE VOLUMES               L**3   RATES FOR THIS TIME STEP           L**3/T
   ------------------                      ------------------------

                                     IN                                         IN
                                     --                                         --
        PRECIPITATION =        1.2495D+07          PRECIPITATION =                  
           STREAMFLOW =                               STREAMFLOW =                  
     GW BOUNDARY FLOW =           2419.60       GW BOUNDARY FLOW =             14.54


                                    OUT                                        OUT
                                    ---                                        ---
   EVAPOTRANSPIRATION =        2967295.42     EVAPOTRANSPIRATION =          44638.85
           STREAMFLOW =        4712958.74             STREAMFLOW =          32455.72
     GW BOUNDARY FLOW =          13237.61       GW BOUNDARY FLOW =             73.00

   INFLOWS - OUTFLOWS =        4804253.12     INFLOWS - OUTFLOWS =         -77153.04
             --------                                   --------

 TOTAL STORAGE CHANGE =        4808208.67         STORAGE CHANGE =         -77124.10
       --------------                             --------------
         LAND SURFACE =        5647574.86           LAND SURFACE =        -132565.95
            SOIL ZONE =        2985734.08              SOIL ZONE =          65934.55
     UNSATURATED ZONE =       -4232798.29       UNSATURATED ZONE =          -9411.30
       SATURATED ZONE =         407698.03         SATURATED ZONE =          -1081.40

 OVERALL BUDGET ERROR =          -3955.55           BUDGET ERROR =            -28.93


  PERCENT DISCREPANCY =             -0.03    PERCENT DISCREPANCY =             -0.04



1
 SUMMARY VOLUMETRIC BUDGET FOR GSFLOW 
 DATE: 04 07 1991              CUMULATIVE TIME STEP:       7
 MODFLOW STRESS PERIOD      8     CURRENT TIME STEP:     189     ITERATIONS:       6

 -----------------------------------------------------------------------------------

   CUMULATIVE VOLUMES               L**3   RATES FOR THIS TIME STEP           L**3/T
   ------------------                      ------------------------

                                     IN                                         IN
                                     --                                         --
        PRECIPITATION =        1.3018D+07          PRECIPITATION =                  
           STREAMFLOW =                               STREAMFLOW =                  
     GW BOUNDARY FLOW =           2521.48       GW BOUNDARY FLOW =             14.56


                                    OUT                                        OUT
                                    ---                                        ---
   EVAPOTRANSPIRATION =        3254550.00     EVAPOTRANSPIRATION =          13551.15
           STREAMFLOW =        5085063.44             STREAMFLOW =          56641.53
     GW BOUNDARY FLOW =          13753.68       GW BOUNDARY FLOW =             73.89

   INFLOWS - OUTFLOWS =        4666891.10     INFLOWS - OUTFLOWS =         -70252.02
             --------                                   --------

 TOTAL STORAGE CHANGE =        4670982.12         STORAGE CHANGE =         -70239.23
       --------------                             --------------
         LAND SURFACE =        4116185.84           LAND SURFACE =         -56924.70
            SOIL ZONE =        4400080.38              SOIL ZONE =         -18545.95
     UNSATURATED ZONE =       -4247249.06       UNSATURATED ZONE =           5785.98
       SATURATED ZONE =         401964.95         SATURATED ZONE =           -554.56

 OVERALL BUDGET ERROR =          -4091.02           BUDGET ERROR =            -12.79


  PERCENT DISCREPANCY =             -0.03    PERCENT DISCREPANCY =             -0.02



1
 SUMMARY VOLUMETRIC BUDGET FOR GSFLOW 
 DATE: 04 14 1991              CUMULATIVE TIME STEP:      14
 MODFLOW STRESS PERIOD      8     CURRENT TIME STEP:     196     ITERATIONS:       7

 -----------------------------------------------------------------------------------

   CUMULATIVE VOLUMES               L**3   RATES FOR THIS TIME STEP           L**3/T
   ------------------                      ------------------------

                                     IN                                         IN
                                     --                                         --
        PRECIPITATION =        1.3018D+07          PRECIPITATION =                  
           STREAMFLOW =                               STREAMFLOW =                  
     GW BOUNDARY FLOW =           2623.44       GW BOUNDARY FLOW =             14.58


                                    OUT                                        OUT
                                    ---                                        ---
   EVAPOTRANSPIRATION =        3424478.74     EVAPOTRANSPIRATION =          38955.66
           STREAMFLOW =        5566441.19             STREAMFLOW =          76543.09
     GW BOUNDARY FLOW =          14272.75       GW BOUNDARY FLOW =             74.30

   INFLOWS - OUTFLOWS =        4015167.49     INFLOWS - OUTFLOWS =        -115558.48
             --------                                   --------

 TOTAL STORAGE CHANGE =        4019338.54         STORAGE CHANGE =        -115548.10
       --------------                             --------------
         LAND SURFACE =        3541064.89           LAND SURFACE =        -164763.05
            SOIL ZONE =        4288903.93              SOIL ZONE =          44819.38
     UNSATURATED ZONE =       -4210328.94       UNSATURATED ZONE =           4619.32
       SATURATED ZONE =         399698.66         SATURATED ZONE =           -223.75

 OVERALL BUDGET ERROR =          -4171.04           BUDGET ERROR =            -10.37


  PERCENT DISCREPANCY =             -0.03    PERCENT DISCREPANCY =             -0.01



1
 SUMMARY VOLUMETRIC BUDGET FOR GSFLOW 
 DATE: 04 21 1991              CUMULATIVE TIME STEP:      21
 MODFLOW STRESS PERIOD      8     CURRENT TIME STEP:     203     ITERATIONS:       6

 -----------------------------------------------------------------------------------

   CUMULATIVE VOLUMES               L**3   RATES FOR THIS TIME STEP           L**3/T
   ------------------                      ------------------------

                                     IN                                         IN
                                     --                                         --
        PRECIPITATION =        1.3034D+07          PRECIPITATION =                  
           STREAMFLOW =                               STREAMFLOW =                  
     GW BOUNDARY FLOW =           2725.60       GW BOUNDARY FLOW =             14.61


                                    OUT                                        OUT
                                    ---                                        ---
   EVAPOTRANSPIRATION =        3656280.59     EVAPOTRANSPIRATION =          43459.74
           STREAMFLOW =        6102243.08             STREAMFLOW =          83242.50
     GW BOUNDARY FLOW =          14791.79       GW BOUNDARY FLOW =             74.27

   INFLOWS - OUTFLOWS =        3263472.24     INFLOWS - OUTFLOWS =        -126761.90
             --------                                   --------

 TOTAL STORAGE CHANGE =        3267715.06         STORAGE CHANGE =        -126750.99
       --------------                             --------------
         LAND SURFACE =        2540683.31           LAND SURFACE =        -195293.54
            SOIL ZONE =        4503729.01              SOIL ZONE =          61941.55
     UNSATURATED ZONE =       -4175165.61       UNSATURATED ZONE =           6817.02
       SATURATED ZONE =         398468.35         SATURATED ZONE =           -216.03

 OVERALL BUDGET ERROR =          -4242.82           BUDGET ERROR =            -10.91


  PERCENT DISCREPANCY =             -0.03    PERCENT DISCREPANCY =             -0.01



1
 SUMMARY VOLUMETRIC BUDGET FOR GSFLOW 
 DATE: 04 28 1991              CUMULATIVE TIME STEP:      28
 MODFLOW STRESS PERIOD      8     CURRENT TIME STEP:     210     ITERATIONS:       6

 -----------------------------------------------------------------------------------

   CUMULATIVE VOLUMES               L**3   RATES FOR THIS TIME STEP           L**3/T
   ------------------                      ------------------------

                                     IN                                         IN
                                     --                                         --
        PRECIPITATION =        1.3303D+07          PRECIPITATION =                  
           STREAMFLOW =                               STREAMFLOW =                  
     GW BOUNDARY FLOW =           2827.93       GW BOUNDARY FLOW =             14.63


                                    OUT                                        OUT
                                    ---                                        ---
   EVAPOTRANSPIRATION =        3903238.65     EVAPOTRANSPIRATION =          55283.23
           STREAMFLOW =        6705626.97             STREAMFLOW =          89472.97
     GW BOUNDARY FLOW =          15311.41       GW BOUNDARY FLOW =             74.25

   INFLOWS - OUTFLOWS =        2682081.40     INFLOWS - OUTFLOWS =        -144815.81
             --------                                   --------

 TOTAL STORAGE CHANGE =        2686400.79         STORAGE CHANGE =        -144805.00
       --------------                             --------------
         LAND SURFACE =        1797938.22           LAND SURFACE =        -152903.02
            SOIL ZONE =        4612047.15              SOIL ZONE =            206.44
     UNSATURATED ZONE =       -4120082.53       UNSATURATED ZONE =           8059.84
       SATURATED ZONE =         396497.95         SATURATED ZONE =           -168.26

 OVERALL BUDGET ERROR =          -4319.39           BUDGET ERROR =            -10.82


  PERCENT DISCREPANCY =             -0.03    PERCENT DISCREPANCY =             -0.01



1
 SUMMARY VOLUMETRIC BUDGET FOR GSFLOW 
 DATE: 05 05 1991              CUMULATIVE TIME STEP:       5
 MODFLOW STRESS PERIOD      9     CURRENT TIME STEP:     217     ITERATIONS:       8

 -----------------------------------------------------------------------------------

   CUMULATIVE VOLUMES               L**3   RATES FOR THIS TIME STEP           L**3/T
   ------------------                      ------------------------

                                     IN                                         IN
                                     --                                         --
        PRECIPITATION =        1.3510D+07          PRECIPITATION =                  
           STREAMFLOW =                               STREAMFLOW =                  
     GW BOUNDARY FLOW =           2930.45       GW BOUNDARY FLOW =             14.66


                                    OUT                                        OUT
                                    ---                                        ---
   EVAPOTRANSPIRATION =        4252308.21     EVAPOTRANSPIRATION =          84817.23
           STREAMFLOW =        7281423.66             STREAMFLOW =          80457.58
     GW BOUNDARY FLOW =          15828.78       GW BOUNDARY FLOW =             73.78

   INFLOWS - OUTFLOWS =        1963077.93     INFLOWS - OUTFLOWS =        -165333.93
             --------                                   --------

 TOTAL STORAGE CHANGE =        1967465.19         STORAGE CHANGE =        -165325.13
       --------------                             --------------
         LAND SURFACE =        1121135.54           LAND SURFACE =        -152852.60
            SOIL ZONE =        4520620.75              SOIL ZONE =         -19336.81
     UNSATURATED ZONE =       -4069328.00       UNSATURATED ZONE =           7047.84
       SATURATED ZONE =         395036.90         SATURATED ZONE =           -183.54

 OVERALL BUDGET ERROR =          -4387.26           BUDGET ERROR =             -8.80


  PERCENT DISCREPANCY =             -0.03    PERCENT DISCREPANCY =             -0.01



1
 SUMMARY VOLUMETRIC BUDGET FOR GSFLOW 
 DATE: 05 12 1991              CUMULATIVE TIME STEP:      12
 MODFLOW STRESS PERIOD      9     CURRENT TIME STEP:     224     ITERATIONS:       7

 -----------------------------------------------------------------------------------

   CUMULATIVE VOLUMES               L**3   RATES FOR THIS TIME STEP           L**3/T
   ------------------                      ------------------------

                                     IN                                         IN
                                     --                                         --
        PRECIPITATION =        1.4029D+07          PRECIPITATION =                  
           STREAMFLOW =                               STREAMFLOW =                  
     GW BOUNDARY FLOW =           3033.20       GW BOUNDARY FLOW =             14.70


                                    OUT                                        OUT
                                    ---                                        ---
   EVAPOTRANSPIRATION =        4622237.16     EVAPOTRANSPIRATION =          62594.93
           STREAMFLOW =        7839725.04             STREAMFLOW =          73361.70
     GW BOUNDARY FLOW =          16344.14       GW BOUNDARY FLOW =             73.34

   INFLOWS - OUTFLOWS =        1553949.01     INFLOWS - OUTFLOWS =        -136015.28
             --------                                   --------

 TOTAL STORAGE CHANGE =        1558395.25         STORAGE CHANGE =        -136007.03
       --------------                             --------------
         LAND SURFACE =         710447.90           LAND SURFACE =         -96049.30
            SOIL ZONE =        4477904.57              SOIL ZONE =         -45464.53
     UNSATURATED ZONE =       -4023744.04       UNSATURATED ZONE =           5805.43
       SATURATED ZONE =         393786.83         SATURATED ZONE =           -298.63

 OVERALL BUDGET ERROR =          -4446.24           BUDGET ERROR =             -8.25


  PERCENT DISCREPANCY =             -0.03    PERCENT DISCREPANCY =             -0.01



1
 SUMMARY VOLUMETRIC BUDGET FOR GSFLOW 
 DATE: 05 19 1991              CUMULATIVE TIME STEP:      19
 MODFLOW STRESS PERIOD      9     CURRENT TIME STEP:     231     ITERATIONS:       7

 -----------------------------------------------------------------------------------

   CUMULATIVE VOLUMES               L**3   RATES FOR THIS TIME STEP           L**3/T
   ------------------                      ------------------------

                                     IN                                         IN
                                     --                                         --
        PRECIPITATION =        1.4365D+07          PRECIPITATION =                  
           STREAMFLOW =                               STREAMFLOW =                  
     GW BOUNDARY FLOW =           3136.26       GW BOUNDARY FLOW =             14.75


                                    OUT                                        OUT
                                    ---                                        ---
   EVAPOTRANSPIRATION =        5022346.00     EVAPOTRANSPIRATION =          17977.42
           STREAMFLOW =        8291822.91             STREAMFLOW =          58191.60
     GW BOUNDARY FLOW =          16854.59       GW BOUNDARY FLOW =             72.61

   INFLOWS - OUTFLOWS =        1037491.07     INFLOWS - OUTFLOWS =         -76226.88
             --------                                   --------

 TOTAL STORAGE CHANGE =        1041995.57         STORAGE CHANGE =         -76218.51
       --------------                             --------------
         LAND SURFACE =         410881.33           LAND SURFACE =         -28850.07
            SOIL ZONE =        4234283.14              SOIL ZONE =         -49529.77
     UNSATURATED ZONE =       -3994466.82       UNSATURATED ZONE =           2632.17
       SATURATED ZONE =         391297.92         SATURATED ZONE =           -470.84

 OVERALL BUDGET ERROR =          -4504.50           BUDGET ERROR =             -8.37


  PERCENT DISCREPANCY =             -0.03    PERCENT DISCREPANCY =             -0.01



1
 SUMMARY VOLUMETRIC BUDGET FOR GSFLOW 
 DATE: 05 26 1991              CUMULATIVE TIME STEP:      26
 MODFLOW STRESS PERIOD      9     CURRENT TIME STEP:     238     ITERATIONS:       6

 -----------------------------------------------------------------------------------

   CUMULATIVE VOLUMES               L**3   RATES FOR THIS TIME STEP           L**3/T
   ------------------                      ------------------------

                                     IN                                         IN
                                     --                                         --
        PRECIPITATION =        1.4426D+07          PRECIPITATION =                  
           STREAMFLOW =                               STREAMFLOW =                  
     GW BOUNDARY FLOW =           3239.73       GW BOUNDARY FLOW =             14.81


                                    OUT                                        OUT
                                    ---                                        ---
   EVAPOTRANSPIRATION =        5669701.39     EVAPOTRANSPIRATION =          71093.69
           STREAMFLOW =        8635048.90             STREAMFLOW =          38324.50
     GW BOUNDARY FLOW =          17359.59       GW BOUNDARY FLOW =             71.63

   INFLOWS - OUTFLOWS =         107627.46     INFLOWS - OUTFLOWS =        -109475.01
             --------                                   --------

 TOTAL STORAGE CHANGE =         112199.72         STORAGE CHANGE =        -109464.95
       --------------                             --------------
         LAND SURFACE =         137693.50           LAND SURFACE =         -13707.53
            SOIL ZONE =        3580071.54              SOIL ZONE =         -91713.84
     UNSATURATED ZONE =       -3991334.17       UNSATURATED ZONE =          -2979.92
       SATURATED ZONE =         385768.85         SATURATED ZONE =          -1063.65

 OVERALL BUDGET ERROR =          -4572.26           BUDGET ERROR =            -10.06


  PERCENT DISCREPANCY =             -0.03    PERCENT DISCREPANCY =             -0.01



1
 SUMMARY VOLUMETRIC BUDGET FOR GSFLOW 
 DATE: 06 02 1991              CUMULATIVE TIME STEP:       2
 MODFLOW STRESS PERIOD     10     CURRENT TIME STEP:     245     ITERATIONS:       6

 -----------------------------------------------------------------------------------

   CUMULATIVE VOLUMES               L**3   RATES FOR THIS TIME STEP           L**3/T
   ------------------                      ------------------------

                                     IN                                         IN
                                     --                                         --
        PRECIPITATION =        1.4671D+07          PRECIPITATION =                  
           STREAMFLOW =                               STREAMFLOW =                  
     GW BOUNDARY FLOW =           3343.69       GW BOUNDARY FLOW =             14.88


                                    OUT                                        OUT
                                    ---                                        ---
   EVAPOTRANSPIRATION =        6214648.05     EVAPOTRANSPIRATION =         119396.93
           STREAMFLOW =        8898518.99             STREAMFLOW =          33634.52
     GW BOUNDARY FLOW =          17859.98       GW BOUNDARY FLOW =             71.23

   INFLOWS - OUTFLOWS =        -456708.54     INFLOWS - OUTFLOWS =        -153087.79
             --------                                   --------

 TOTAL STORAGE CHANGE =        -452061.16         STORAGE CHANGE =        -153076.79
       --------------                             --------------
         LAND SURFACE =          65228.73           LAND SURFACE =         -11414.61
            SOIL ZONE =        3133158.16              SOIL ZONE =        -133785.49
     UNSATURATED ZONE =       -4028413.35       UNSATURATED ZONE =          -6634.72
       SATURATED ZONE =         377965.30         SATURATED ZONE =          -1241.97

 OVERALL BUDGET ERROR =          -4647.38           BUDGET ERROR =            -11.00


  PERCENT DISCREPANCY =             -0.03    PERCENT DISCREPANCY =             -0.01



1
 SUMMARY VOLUMETRIC BUDGET FOR GSFLOW 
 DATE: 06 09 1991              CUMULATIVE TIME STEP:       9
 MODFLOW STRESS PERIOD     10     CURRENT TIME STEP:     252     ITERATIONS:       8

 -----------------------------------------------------------------------------------

   CUMULATIVE VOLUMES               L**3   RATES FOR THIS TIME STEP           L**3/T
   ------------------                      ------------------------

                                     IN                                         IN
                                     --                                         --
        PRECIPITATION =        1.4671D+07          PRECIPITATION =                  
           STREAMFLOW =                               STREAMFLOW =                  
     GW BOUNDARY FLOW =           3448.19       GW BOUNDARY FLOW =             14.96


                                    OUT                                        OUT
                                    ---                                        ---
   EVAPOTRANSPIRATION =        6931057.77     EVAPOTRANSPIRATION =         166531.68
           STREAMFLOW =        9107663.64             STREAMFLOW =          27095.78
     GW BOUNDARY FLOW =          18356.55       GW BOUNDARY FLOW =             70.72

   INFLOWS - OUTFLOWS =       -1382654.97     INFLOWS - OUTFLOWS =        -193683.22
             --------                                   --------

 TOTAL STORAGE CHANGE =       -1377910.95         STORAGE CHANGE =        -193672.69
       --------------                             --------------
         LAND SURFACE =          17498.47           LAND SURFACE =          -7585.85
            SOIL ZONE =        2333308.94              SOIL ZONE =        -172606.13
     UNSATURATED ZONE =       -4095762.95       UNSATURATED ZONE =         -11628.38
       SATURATED ZONE =         367044.59         SATURATED ZONE =          -1852.32

 OVERALL BUDGET ERROR =          -4744.02           BUDGET ERROR =            -10.53


  PERCENT DISCREPANCY =             -0.03    PERCENT DISCREPANCY =             -0.01



1
 SUMMARY VOLUMETRIC BUDGET FOR GSFLOW 
 DATE: 06 16 1991              CUMULATIVE TIME STEP:      16
 MODFLOW STRESS PERIOD     10     CURRENT TIME STEP:     259     ITERATIONS:       7

 -----------------------------------------------------------------------------------

   CUMULATIVE VOLUMES               L**3   RATES FOR THIS TIME STEP           L**3/T
   ------------------                      ------------------------

                                     IN                                         IN
                                     --                                         --
        PRECIPITATION =        1.4671D+07          PRECIPITATION =                  
           STREAMFLOW =                               STREAMFLOW =                  
     GW BOUNDARY FLOW =           3553.29       GW BOUNDARY FLOW =             15.06


                                    OUT                                        OUT
                                    ---                                        ---
   EVAPOTRANSPIRATION =        7888641.37     EVAPOTRANSPIRATION =         107699.69
           STREAMFLOW =        9285825.37             STREAMFLOW =          24963.45
     GW BOUNDARY FLOW =          18850.12       GW BOUNDARY FLOW =             70.39

   INFLOWS - OUTFLOWS =       -2518788.77     INFLOWS - OUTFLOWS =        -132718.47
             --------                                   --------

 TOTAL STORAGE CHANGE =       -2513959.54         STORAGE CHANGE =        -132706.31
       --------------                             --------------
         LAND SURFACE =            705.51           LAND SURFACE =           -399.79
            SOIL ZONE =        1356158.05              SOIL ZONE =        -107163.67
     UNSATURATED ZONE =       -4222441.74       UNSATURATED ZONE =         -22693.17
       SATURATED ZONE =         351618.64         SATURATED ZONE =          -2449.68

 OVERALL BUDGET ERROR =          -4829.23           BUDGET ERROR =            -12.16


  PERCENT DISCREPANCY =             -0.03    PERCENT DISCREPANCY =             -0.01



1
 SUMMARY VOLUMETRIC BUDGET FOR GSFLOW 
 DATE: 06 23 1991              CUMULATIVE TIME STEP:      23
 MODFLOW STRESS PERIOD     10     CURRENT TIME STEP:     266     ITERATIONS:       6

 -----------------------------------------------------------------------------------

   CUMULATIVE VOLUMES               L**3   RATES FOR THIS TIME STEP           L**3/T
   ------------------                      ------------------------

                                     IN                                         IN
                                     --                                         --
        PRECIPITATION =        1.4671D+07          PRECIPITATION =                  
           STREAMFLOW =                               STREAMFLOW =                  
     GW BOUNDARY FLOW =           3659.04       GW BOUNDARY FLOW =             15.15


                                    OUT                                        OUT
                                    ---                                        ---
   EVAPOTRANSPIRATION =        8359144.58     EVAPOTRANSPIRATION =          33399.56
           STREAMFLOW =        9457505.59             STREAMFLOW =          24264.57
     GW BOUNDARY FLOW =          19341.87       GW BOUNDARY FLOW =             70.15

   INFLOWS - OUTFLOWS =       -3161358.19     INFLOWS - OUTFLOWS =         -57719.13
             --------                                   --------

 TOTAL STORAGE CHANGE =       -3156425.43         STORAGE CHANGE =         -57703.77
       --------------                             --------------
         LAND SURFACE =             27.33           LAND SURFACE =             -3.89
            SOIL ZONE =         894031.56              SOIL ZONE =         -33960.07
     UNSATURATED ZONE =       -4382189.98       UNSATURATED ZONE =         -20639.79
       SATURATED ZONE =         331705.65         SATURATED ZONE =          -3100.03

 OVERALL BUDGET ERROR =          -4932.76           BUDGET ERROR =            -15.36


  PERCENT DISCREPANCY =             -0.03    PERCENT DISCREPANCY =             -0.03



1
 SUMMARY VOLUMETRIC BUDGET FOR GSFLOW 
 DATE: 06 30 1991              CUMULATIVE TIME STEP:      30
 MODFLOW STRESS PERIOD     10     CURRENT TIME STEP:     273     ITERATIONS:       6

 -----------------------------------------------------------------------------------

   CUMULATIVE VOLUMES               L**3   RATES FOR THIS TIME STEP           L**3/T
   ------------------                      ------------------------

                                     IN                                         IN
[...]
                                    ---                                        ---
   EVAPOTRANSPIRATION =        1.3549D+08     EVAPOTRANSPIRATION =          10031.42
           STREAMFLOW =        1.4184D+08             STREAMFLOW =           2712.06
     GW BOUNDARY FLOW =         222288.54       GW BOUNDARY FLOW =             54.65

   INFLOWS - OUTFLOWS =       -3.7493D+07     INFLOWS - OUTFLOWS =         -12776.75
             --------                                   --------

 TOTAL STORAGE CHANGE =       -3.7456D+07         STORAGE CHANGE =         -12777.34
       --------------                             --------------
         LAND SURFACE =                             LAND SURFACE =                  
            SOIL ZONE =       -1988608.63              SOIL ZONE =           1307.95
     UNSATURATED ZONE =       -1747131.10       UNSATURATED ZONE =          -3329.25
       SATURATED ZONE =       -3.3720D+07         SATURATED ZONE =         -10756.04

 OVERALL BUDGET ERROR =         -37015.17           BUDGET ERROR =              0.59


  PERCENT DISCREPANCY =             -0.01    PERCENT DISCREPANCY =              0.00



1
 SUMMARY VOLUMETRIC BUDGET FOR GSFLOW 
 DATE: 09 03 2000              CUMULATIVE TIME STEP:       3
 MODFLOW STRESS PERIOD    121     CURRENT TIME STEP:    3626     ITERATIONS:      11

 -----------------------------------------------------------------------------------

   CUMULATIVE VOLUMES               L**3   RATES FOR THIS TIME STEP           L**3/T
   ------------------                      ------------------------

                                     IN                                         IN
                                     --                                         --
        PRECIPITATION =        2.4013D+08          PRECIPITATION =                  
           STREAMFLOW =                               STREAMFLOW =                  
     GW BOUNDARY FLOW =          69421.94       GW BOUNDARY FLOW =             21.40


                                    OUT                                        OUT
                                    ---                                        ---
   EVAPOTRANSPIRATION =        1.3556D+08     EVAPOTRANSPIRATION =          28548.21
           STREAMFLOW =        1.4189D+08             STREAMFLOW =          11032.53
     GW BOUNDARY FLOW =         222676.49       GW BOUNDARY FLOW =             56.29

   INFLOWS - OUTFLOWS =       -3.7475D+07     INFLOWS - OUTFLOWS =         -39615.64
             --------                                   --------

 TOTAL STORAGE CHANGE =       -3.7438D+07         STORAGE CHANGE =         -39615.98
       --------------                             --------------
         LAND SURFACE =           8198.00           LAND SURFACE =         -28500.39
            SOIL ZONE =       -1891921.25              SOIL ZONE =            -26.32
     UNSATURATED ZONE =       -1771140.00       UNSATURATED ZONE =          -3354.32
       SATURATED ZONE =       -3.3783D+07         SATURATED ZONE =          -7734.95

 OVERALL BUDGET ERROR =         -37013.63           BUDGET ERROR =              0.35


  PERCENT DISCREPANCY =             -0.01    PERCENT DISCREPANCY =              0.00



1
 SUMMARY VOLUMETRIC BUDGET FOR GSFLOW 
 DATE: 09 10 2000              CUMULATIVE TIME STEP:      10
 MODFLOW STRESS PERIOD    121     CURRENT TIME STEP:    3633     ITERATIONS:     251

 -----------------------------------------------------------------------------------

   CUMULATIVE VOLUMES               L**3   RATES FOR THIS TIME STEP           L**3/T
   ------------------                      ------------------------

                                     IN                                         IN
                                     --                                         --
        PRECIPITATION =        2.4013D+08          PRECIPITATION =                  
           STREAMFLOW =                               STREAMFLOW =                  
     GW BOUNDARY FLOW =          69571.76       GW BOUNDARY FLOW =             21.41


                                    OUT                                        OUT
                                    ---                                        ---
   EVAPOTRANSPIRATION =        1.3562D+08     EVAPOTRANSPIRATION =           7823.24
           STREAMFLOW =        1.4196D+08             STREAMFLOW =           9241.97
     GW BOUNDARY FLOW =         223067.44       GW BOUNDARY FLOW =             55.81

   INFLOWS - OUTFLOWS =       -3.7608D+07     INFLOWS - OUTFLOWS =         -17099.61
             --------                                   --------

 TOTAL STORAGE CHANGE =       -3.7571D+07         STORAGE CHANGE =         -17077.01
       --------------                             --------------
         LAND SURFACE =                             LAND SURFACE =                  
            SOIL ZONE =       -1927535.74              SOIL ZONE =          -4491.87
     UNSATURATED ZONE =       -1795856.40       UNSATURATED ZONE =          -4352.66
       SATURATED ZONE =       -3.3847D+07         SATURATED ZONE =          -8232.49

 OVERALL BUDGET ERROR =         -37033.92           BUDGET ERROR =            -22.59


  PERCENT DISCREPANCY =             -0.01    PERCENT DISCREPANCY =             -0.13



1
 SUMMARY VOLUMETRIC BUDGET FOR GSFLOW 
 DATE: 09 17 2000              CUMULATIVE TIME STEP:      17
 MODFLOW STRESS PERIOD    121     CURRENT TIME STEP:    3640     ITERATIONS:      12

 -----------------------------------------------------------------------------------

   CUMULATIVE VOLUMES               L**3   RATES FOR THIS TIME STEP           L**3/T
   ------------------                      ------------------------

                                     IN                                         IN
                                     --                                         --
        PRECIPITATION =        2.4013D+08          PRECIPITATION =                  
           STREAMFLOW =                               STREAMFLOW =                  
     GW BOUNDARY FLOW =          69721.67       GW BOUNDARY FLOW =             21.42


                                    OUT                                        OUT
                                    ---                                        ---
   EVAPOTRANSPIRATION =        1.3568D+08     EVAPOTRANSPIRATION =           7122.51
           STREAMFLOW =        1.4202D+08             STREAMFLOW =           8929.12
     GW BOUNDARY FLOW =         223457.07       GW BOUNDARY FLOW =             55.70

   INFLOWS - OUTFLOWS =       -3.7728D+07     INFLOWS - OUTFLOWS =         -16085.91
             --------                                   --------

 TOTAL STORAGE CHANGE =       -3.7691D+07         STORAGE CHANGE =         -16086.36
       --------------                             --------------
         LAND SURFACE =                             LAND SURFACE =                  
            SOIL ZONE =       -1956341.93              SOIL ZONE =          -3038.89
     UNSATURATED ZONE =       -1819433.52       UNSATURATED ZONE =          -3390.60
       SATURATED ZONE =       -3.3915D+07         SATURATED ZONE =          -9656.87

 OVERALL BUDGET ERROR =         -37030.81           BUDGET ERROR =              0.45


  PERCENT DISCREPANCY =             -0.01    PERCENT DISCREPANCY =              0.00



1
 SUMMARY VOLUMETRIC BUDGET FOR GSFLOW 
 DATE: 09 24 2000              CUMULATIVE TIME STEP:      24
 MODFLOW STRESS PERIOD    121     CURRENT TIME STEP:    3647     ITERATIONS:      18

 -----------------------------------------------------------------------------------

   CUMULATIVE VOLUMES               L**3   RATES FOR THIS TIME STEP           L**3/T
   ------------------                      ------------------------

                                     IN                                         IN
                                     --                                         --
        PRECIPITATION =        2.4013D+08          PRECIPITATION =                  
           STREAMFLOW =                               STREAMFLOW =                  
     GW BOUNDARY FLOW =          69871.67       GW BOUNDARY FLOW =             21.43


                                    OUT                                        OUT
                                    ---                                        ---
   EVAPOTRANSPIRATION =        1.3572D+08     EVAPOTRANSPIRATION =           3338.17
           STREAMFLOW =        1.4209D+08             STREAMFLOW =           9944.02
     GW BOUNDARY FLOW =         223847.87       GW BOUNDARY FLOW =             56.06

   INFLOWS - OUTFLOWS =       -3.7830D+07     INFLOWS - OUTFLOWS =         -13316.83
             --------                                   --------

 TOTAL STORAGE CHANGE =       -3.7793D+07         STORAGE CHANGE =         -13317.21
       --------------                             --------------
         LAND SURFACE =                             LAND SURFACE =                  
            SOIL ZONE =       -1969971.66              SOIL ZONE =          -1103.77
     UNSATURATED ZONE =       -1842927.98       UNSATURATED ZONE =          -3368.81
       SATURATED ZONE =       -3.3980D+07         SATURATED ZONE =          -8844.64

 OVERALL BUDGET ERROR =         -37027.93           BUDGET ERROR =              0.38


  PERCENT DISCREPANCY =             -0.01    PERCENT DISCREPANCY =              0.00



1
 SUMMARY VOLUMETRIC BUDGET FOR GSFLOW 
 DATE: 10 01 2000              CUMULATIVE TIME STEP:       1
 MODFLOW STRESS PERIOD    122     CURRENT TIME STEP:    3654     ITERATIONS:      15

 -----------------------------------------------------------------------------------

   CUMULATIVE VOLUMES               L**3   RATES FOR THIS TIME STEP           L**3/T
   ------------------                      ------------------------

                                     IN                                         IN
                                     --                                         --
        PRECIPITATION =        2.4013D+08          PRECIPITATION =                  
           STREAMFLOW =                               STREAMFLOW =                  
     GW BOUNDARY FLOW =          70021.71       GW BOUNDARY FLOW =             21.44


                                    OUT                                        OUT
                                    ---                                        ---
   EVAPOTRANSPIRATION =        1.3576D+08     EVAPOTRANSPIRATION =           5268.35
           STREAMFLOW =        1.4215D+08             STREAMFLOW =           9126.08
     GW BOUNDARY FLOW =         224238.67       GW BOUNDARY FLOW =             55.83

   INFLOWS - OUTFLOWS =       -3.7933D+07     INFLOWS - OUTFLOWS =         -14428.83
             --------                                   --------

 TOTAL STORAGE CHANGE =       -3.7896D+07         STORAGE CHANGE =         -14429.25
       --------------                             --------------
         LAND SURFACE =                             LAND SURFACE =                  
            SOIL ZONE =       -1982269.22              SOIL ZONE =          -1620.12
     UNSATURATED ZONE =       -1866349.65       UNSATURATED ZONE =          -3318.72
       SATURATED ZONE =       -3.4047D+07         SATURATED ZONE =          -9490.41

 OVERALL BUDGET ERROR =         -37024.88           BUDGET ERROR =              0.43


  PERCENT DISCREPANCY =             -0.01    PERCENT DISCREPANCY =              0.00



1
 SUMMARY VOLUMETRIC BUDGET FOR GSFLOW 
 DATE: 10 08 2000              CUMULATIVE TIME STEP:       8
 MODFLOW STRESS PERIOD    122     CURRENT TIME STEP:    3661     ITERATIONS:      19

 -----------------------------------------------------------------------------------

   CUMULATIVE VOLUMES               L**3   RATES FOR THIS TIME STEP           L**3/T
   ------------------                      ------------------------

                                     IN                                         IN
                                     --                                         --
        PRECIPITATION =        2.4013D+08          PRECIPITATION =                  
           STREAMFLOW =                               STREAMFLOW =                  
     GW BOUNDARY FLOW =          70171.82       GW BOUNDARY FLOW =             21.45


                                    OUT                                        OUT
                                    ---                                        ---
   EVAPOTRANSPIRATION =        1.3579D+08     EVAPOTRANSPIRATION =           4361.70
           STREAMFLOW =        1.4222D+08             STREAMFLOW =           9447.62
     GW BOUNDARY FLOW =         224630.11       GW BOUNDARY FLOW =             55.96

   INFLOWS - OUTFLOWS =       -3.8030D+07     INFLOWS - OUTFLOWS =         -13843.83
             --------                                   --------

 TOTAL STORAGE CHANGE =       -3.7993D+07         STORAGE CHANGE =         -13844.23
       --------------                             --------------
         LAND SURFACE =                             LAND SURFACE =                  
            SOIL ZONE =       -1991550.70              SOIL ZONE =          -1223.92
     UNSATURATED ZONE =       -1889533.23       UNSATURATED ZONE =          -3293.65
       SATURATED ZONE =       -3.4112D+07         SATURATED ZONE =          -9326.65

 OVERALL BUDGET ERROR =         -37022.05           BUDGET ERROR =              0.39


  PERCENT DISCREPANCY =             -0.01    PERCENT DISCREPANCY =              0.00



1
 SUMMARY VOLUMETRIC BUDGET FOR GSFLOW 
 DATE: 10 15 2000              CUMULATIVE TIME STEP:      15
 MODFLOW STRESS PERIOD    122     CURRENT TIME STEP:    3668     ITERATIONS:      18

 -----------------------------------------------------------------------------------

   CUMULATIVE VOLUMES               L**3   RATES FOR THIS TIME STEP           L**3/T
   ------------------                      ------------------------

                                     IN                                         IN
                                     --                                         --
        PRECIPITATION =        2.4034D+08          PRECIPITATION =                  
           STREAMFLOW =                               STREAMFLOW =                  
     GW BOUNDARY FLOW =          70321.91       GW BOUNDARY FLOW =             21.44


                                    OUT                                        OUT
                                    ---                                        ---
   EVAPOTRANSPIRATION =        1.3584D+08     EVAPOTRANSPIRATION =           6356.55
           STREAMFLOW =        1.4229D+08             STREAMFLOW =          10586.31
     GW BOUNDARY FLOW =         225025.49       GW BOUNDARY FLOW =             56.41

   INFLOWS - OUTFLOWS =       -3.7948D+07     INFLOWS - OUTFLOWS =         -16977.83
             --------                                   --------

 TOTAL STORAGE CHANGE =       -3.7911D+07         STORAGE CHANGE =         -16978.14
       --------------                             --------------
         LAND SURFACE =             11.88           LAND SURFACE =            -60.12
            SOIL ZONE =       -1827673.12              SOIL ZONE =          -4885.71
     UNSATURATED ZONE =       -1912378.41       UNSATURATED ZONE =          -3289.90
       SATURATED ZONE =       -3.4171D+07         SATURATED ZONE =          -8742.40

 OVERALL BUDGET ERROR =         -37019.99           BUDGET ERROR =              0.31


  PERCENT DISCREPANCY =             -0.01    PERCENT DISCREPANCY =              0.00



1
 SUMMARY VOLUMETRIC BUDGET FOR GSFLOW 
 DATE: 10 22 2000              CUMULATIVE TIME STEP:      22
 MODFLOW STRESS PERIOD    122     CURRENT TIME STEP:    3675     ITERATIONS:      15

 -----------------------------------------------------------------------------------

   CUMULATIVE VOLUMES               L**3   RATES FOR THIS TIME STEP           L**3/T
   ------------------                      ------------------------

                                     IN                                         IN
                                     --                                         --
        PRECIPITATION =        2.4039D+08          PRECIPITATION =                  
           STREAMFLOW =                               STREAMFLOW =                  
     GW BOUNDARY FLOW =          70471.98       GW BOUNDARY FLOW =             21.44


                                    OUT                                        OUT
                                    ---                                        ---
   EVAPOTRANSPIRATION =        1.3590D+08     EVAPOTRANSPIRATION =           8690.37
           STREAMFLOW =        1.4237D+08             STREAMFLOW =          11367.66
     GW BOUNDARY FLOW =         225421.16       GW BOUNDARY FLOW =             56.81

   INFLOWS - OUTFLOWS =       -3.8028D+07     INFLOWS - OUTFLOWS =         -20093.40
             --------                                   --------

 TOTAL STORAGE CHANGE =       -3.7991D+07         STORAGE CHANGE =         -20093.65
       --------------                             --------------
         LAND SURFACE =          14940.20           LAND SURFACE =          -8673.07
            SOIL ZONE =       -1839642.12              SOIL ZONE =             14.36
     UNSATURATED ZONE =       -1935124.85       UNSATURATED ZONE =          -3197.58
       SATURATED ZONE =       -3.4231D+07         SATURATED ZONE =          -8237.36

 OVERALL BUDGET ERROR =         -37017.93           BUDGET ERROR =              0.24


  PERCENT DISCREPANCY =             -0.01    PERCENT DISCREPANCY =              0.00



1
 SUMMARY VOLUMETRIC BUDGET FOR GSFLOW 
 DATE: 10 29 2000              CUMULATIVE TIME STEP:      29
 MODFLOW STRESS PERIOD    122     CURRENT TIME STEP:    3682     ITERATIONS:      18

 -----------------------------------------------------------------------------------

   CUMULATIVE VOLUMES               L**3   RATES FOR THIS TIME STEP           L**3/T
   ------------------                      ------------------------

                                     IN                                         IN
                                     --                                         --
        PRECIPITATION =        2.4111D+08          PRECIPITATION =          24578.20
           STREAMFLOW =                               STREAMFLOW =                  
     GW BOUNDARY FLOW =          70621.99       GW BOUNDARY FLOW =             21.43


                                    OUT                                        OUT
                                    ---                                        ---
   EVAPOTRANSPIRATION =        1.3593D+08     EVAPOTRANSPIRATION =           3985.84
           STREAMFLOW =        1.4245D+08             STREAMFLOW =          11407.60
     GW BOUNDARY FLOW =         225819.05       GW BOUNDARY FLOW =             57.12

   INFLOWS - OUTFLOWS =       -3.7423D+07     INFLOWS - OUTFLOWS =           9149.07
             --------                                   --------

 TOTAL STORAGE CHANGE =       -3.7386D+07         STORAGE CHANGE =           9148.82
       --------------                             --------------
         LAND SURFACE =         498945.50           LAND SURFACE =          15332.79
            SOIL ZONE =       -1636453.88              SOIL ZONE =           5389.95
     UNSATURATED ZONE =       -1957805.16       UNSATURATED ZONE =          -3258.34
       SATURATED ZONE =       -3.4290D+07         SATURATED ZONE =          -8315.58

 OVERALL BUDGET ERROR =         -37016.10           BUDGET ERROR =              0.25


  PERCENT DISCREPANCY =             -0.01    PERCENT DISCREPANCY =              0.00



