1
 SUMMARY VOLUMETRIC BUDGET FOR GSFLOW 
 DATE: 10 07 1990              CUMULATIVE TIME STEP:       7
 MODFLOW STRESS PERIOD      2     CURRENT TIME STEP:       7     ITERATIONS:       7

 -----------------------------------------------------------------------------------

   CUMULATIVE VOLUMES               L**3   RATES FOR THIS TIME STEP           L**3/T
   ------------------                      ------------------------

                                     IN                                         IN
                                     --                                         --
        PRECIPITATION =                            PRECIPITATION =                  
           STREAMFLOW =                               STREAMFLOW =                  
     GW BOUNDARY FLOW =                         GW BOUNDARY FLOW =                  


                                    OUT                                        OUT
                                    ---                                        ---
   EVAPOTRANSPIRATION =         384999.51     EVAPOTRANSPIRATION =          11800.15
           STREAMFLOW =          46667.93             STREAMFLOW =           8198.47
     GW BOUNDARY FLOW =            252.84       GW BOUNDARY FLOW =             36.31

   INFLOWS - OUTFLOWS =        -431920.28     INFLOWS - OUTFLOWS =         -20034.92
             --------                                   --------

 TOTAL STORAGE CHANGE =        -430449.80         STORAGE CHANGE =         -20008.32
       --------------                             --------------
         LAND SURFACE =                             LAND SURFACE =                  
            SOIL ZONE =         -34290.83              SOIL ZONE =           -969.47
     UNSATURATED ZONE =        -502309.57       UNSATURATED ZONE =         -33323.79
       SATURATED ZONE =         106150.60         SATURATED ZONE =          14284.94

 OVERALL BUDGET ERROR =          -1470.48           BUDGET ERROR =            -26.60


  PERCENT DISCREPANCY =             -0.34    PERCENT DISCREPANCY =             -0.13



1
 SUMMARY VOLUMETRIC BUDGET FOR GSFLOW 
 DATE: 10 14 1990              CUMULATIVE TIME STEP:      14
 MODFLOW STRESS PERIOD      2     CURRENT TIME STEP:      14     ITERATIONS:       6

 -----------------------------------------------------------------------------------

   CUMULATIVE VOLUMES               L**3   RATES FOR THIS TIME STEP           L**3/T
   ------------------                      ------------------------

                                     IN                                         IN
                                     --                                         --
        PRECIPITATION =                            PRECIPITATION =                  
           STREAMFLOW =                               STREAMFLOW =                  
     GW BOUNDARY FLOW =                         GW BOUNDARY FLOW =                  


                                    OUT                                        OUT
                                    ---                                        ---
   EVAPOTRANSPIRATION =         665198.50     EVAPOTRANSPIRATION =          42313.85
           STREAMFLOW =         102111.88             STREAMFLOW =           7521.89
     GW BOUNDARY FLOW =            506.72       GW BOUNDARY FLOW =             36.25

   INFLOWS - OUTFLOWS =        -767817.10     INFLOWS - OUTFLOWS =         -49871.99
             --------                                   --------

 TOTAL STORAGE CHANGE =        -766062.58         STORAGE CHANGE =         -49851.35
       --------------                             --------------
         LAND SURFACE =                             LAND SURFACE =                  
            SOIL ZONE =         -59879.82              SOIL ZONE =          -4521.26
     UNSATURATED ZONE =        -877157.81       UNSATURATED ZONE =         -52135.24
       SATURATED ZONE =         170975.05         SATURATED ZONE =           6805.14

 OVERALL BUDGET ERROR =          -1754.52           BUDGET ERROR =            -20.64


  PERCENT DISCREPANCY =             -0.23    PERCENT DISCREPANCY =             -0.04



1
 SUMMARY VOLUMETRIC BUDGET FOR GSFLOW 
 DATE: 10 21 1990              CUMULATIVE TIME STEP:      21
 MODFLOW STRESS PERIOD      2     CURRENT TIME STEP:      21     ITERATIONS:       6

 -----------------------------------------------------------------------------------

   CUMULATIVE VOLUMES               L**3   RATES FOR THIS TIME STEP           L**3/T
   ------------------                      ------------------------

                                     IN                                         IN
                                     --                                         --
        PRECIPITATION =         188432.87          PRECIPITATION =                  
           STREAMFLOW =                               STREAMFLOW =                  
     GW BOUNDARY FLOW =                         GW BOUNDARY FLOW =                  


                                    OUT                                        OUT
                                    ---                                        ---
   EVAPOTRANSPIRATION =         815453.15     EVAPOTRANSPIRATION =          41709.14
           STREAMFLOW =         165361.95             STREAMFLOW =          10163.15
     GW BOUNDARY FLOW =            760.92       GW BOUNDARY FLOW =             36.37

   INFLOWS - OUTFLOWS =        -793143.16     INFLOWS - OUTFLOWS =         -51908.67
             --------                                   --------

 TOTAL STORAGE CHANGE =        -791334.55         STORAGE CHANGE =         -51913.50
       --------------                             --------------
         LAND SURFACE =          18885.57           LAND SURFACE =         -43558.49
            SOIL ZONE =          46639.47              SOIL ZONE =           2049.64
     UNSATURATED ZONE =       -1091074.91       UNSATURATED ZONE =         -21351.71
       SATURATED ZONE =         234215.33         SATURATED ZONE =          10947.06

 OVERALL BUDGET ERROR =          -1808.61           BUDGET ERROR =              4.83


  PERCENT DISCREPANCY =             -0.18    PERCENT DISCREPANCY =              0.01



1
 SUMMARY VOLUMETRIC BUDGET FOR GSFLOW 
 DATE: 10 28 1990              CUMULATIVE TIME STEP:      28
 MODFLOW STRESS PERIOD      2     CURRENT TIME STEP:      28     ITERATIONS:       6

 -----------------------------------------------------------------------------------

   CUMULATIVE VOLUMES               L**3   RATES FOR THIS TIME STEP           L**3/T
   ------------------                      ------------------------

                                     IN                                         IN
                                     --                                         --
        PRECIPITATION =         188432.87          PRECIPITATION =                  
           STREAMFLOW =                               STREAMFLOW =                  
     GW BOUNDARY FLOW =                         GW BOUNDARY FLOW =                  


                                    OUT                                        OUT
                                    ---                                        ---
   EVAPOTRANSPIRATION =         943808.42     EVAPOTRANSPIRATION =          11827.89
           STREAMFLOW =         227345.71             STREAMFLOW =           8995.27
     GW BOUNDARY FLOW =           1014.14       GW BOUNDARY FLOW =             36.13

   INFLOWS - OUTFLOWS =        -983735.40     INFLOWS - OUTFLOWS =         -20859.29
             --------                                   --------

 TOTAL STORAGE CHANGE =        -981915.24         STORAGE CHANGE =         -20861.47
       --------------                             --------------
         LAND SURFACE =                             LAND SURFACE =                  
            SOIL ZONE =          16749.39              SOIL ZONE =          -3528.73
     UNSATURATED ZONE =       -1274869.59       UNSATURATED ZONE =         -23295.71
       SATURATED ZONE =         276204.96         SATURATED ZONE =           5962.97

 OVERALL BUDGET ERROR =          -1820.16           BUDGET ERROR =              2.18


  PERCENT DISCREPANCY =             -0.16    PERCENT DISCREPANCY =              0.01



1
 SUMMARY VOLUMETRIC BUDGET FOR GSFLOW 
 DATE: 11 04 1990              CUMULATIVE TIME STEP:       4
 MODFLOW STRESS PERIOD      3     CURRENT TIME STEP:      35     ITERATIONS:       6

 -----------------------------------------------------------------------------------

   CUMULATIVE VOLUMES               L**3   RATES FOR THIS TIME STEP           L**3/T
   ------------------                      ------------------------

                                     IN                                         IN
                                     --                                         --
        PRECIPITATION =         703113.06          PRECIPITATION =                  
           STREAMFLOW =                               STREAMFLOW =                  
     GW BOUNDARY FLOW =                         GW BOUNDARY FLOW =                  


                                    OUT                                        OUT
                                    ---                                        ---
   EVAPOTRANSPIRATION =        1004388.14     EVAPOTRANSPIRATION =          26280.52
           STREAMFLOW =         297839.72             STREAMFLOW =          10541.63
     GW BOUNDARY FLOW =           1267.20       GW BOUNDARY FLOW =             36.14

   INFLOWS - OUTFLOWS =        -600381.99     INFLOWS - OUTFLOWS =         -36858.29
             --------                                   --------

 TOTAL STORAGE CHANGE =        -598583.30         STORAGE CHANGE =         -36862.98
       --------------                             --------------
         LAND SURFACE =         132159.65           LAND SURFACE =        -160480.33
            SOIL ZONE =         353948.90              SOIL ZONE =         134348.86
     UNSATURATED ZONE =       -1420708.22       UNSATURATED ZONE =         -20103.16
       SATURATED ZONE =         336016.36         SATURATED ZONE =           9371.66

 OVERALL BUDGET ERROR =          -1798.69           BUDGET ERROR =              4.69


  PERCENT DISCREPANCY =             -0.14    PERCENT DISCREPANCY =              0.01



1
 SUMMARY VOLUMETRIC BUDGET FOR GSFLOW 
 DATE: 11 11 1990              CUMULATIVE TIME STEP:      11
 MODFLOW STRESS PERIOD      3     CURRENT TIME STEP:      42     ITERATIONS:       6

 -----------------------------------------------------------------------------------

   CUMULATIVE VOLUMES               L**3   RATES FOR THIS TIME STEP           L**3/T
   ------------------                      ------------------------

                                     IN                                         IN
                                     --                                         --
        PRECIPITATION =         703113.06          PRECIPITATION =                  
           STREAMFLOW =                               STREAMFLOW =                  
     GW BOUNDARY FLOW =                         GW BOUNDARY FLOW =                  


                                    OUT                                        OUT
                                    ---                                        ---
   EVAPOTRANSPIRATION =        1081555.33     EVAPOTRANSPIRATION =          12134.32
           STREAMFLOW =         369313.74             STREAMFLOW =           9867.43
     GW BOUNDARY FLOW =           1519.35       GW BOUNDARY FLOW =             35.94

   INFLOWS - OUTFLOWS =        -749275.35     INFLOWS - OUTFLOWS =         -22037.69
             --------                                   --------

 TOTAL STORAGE CHANGE =        -747500.48         STORAGE CHANGE =         -22040.75
       --------------                             --------------
         LAND SURFACE =            595.09           LAND SURFACE =          -1416.54
            SOIL ZONE =         424104.48              SOIL ZONE =          -6316.90
     UNSATURATED ZONE =       -1560491.50       UNSATURATED ZONE =         -20008.21
       SATURATED ZONE =         388291.44         SATURATED ZONE =           5700.91

 OVERALL BUDGET ERROR =          -1774.87           BUDGET ERROR =              3.05


  PERCENT DISCREPANCY =             -0.12    PERCENT DISCREPANCY =              0.01



1
 SUMMARY VOLUMETRIC BUDGET FOR GSFLOW 
 DATE: 11 18 1990              CUMULATIVE TIME STEP:      18
 MODFLOW STRESS PERIOD      3     CURRENT TIME STEP:      49     ITERATIONS:       6

 -----------------------------------------------------------------------------------

   CUMULATIVE VOLUMES               L**3   RATES FOR THIS TIME STEP           L**3/T
   ------------------                      ------------------------

                                     IN                                         IN
                                     --                                         --
        PRECIPITATION =         747883.35          PRECIPITATION =                  
           STREAMFLOW =                               STREAMFLOW =                  
     GW BOUNDARY FLOW =                         GW BOUNDARY FLOW =                  


                                    OUT                                        OUT
                                    ---                                        ---
   EVAPOTRANSPIRATION =        1153986.02     EVAPOTRANSPIRATION =           5055.73
           STREAMFLOW =         441741.16             STREAMFLOW =          10681.87
     GW BOUNDARY FLOW =           1770.72       GW BOUNDARY FLOW =             35.89

   INFLOWS - OUTFLOWS =        -849614.54     INFLOWS - OUTFLOWS =         -15773.49
             --------                                   --------

 TOTAL STORAGE CHANGE =        -847861.07         STORAGE CHANGE =         -15776.98
       --------------                             --------------
         LAND SURFACE =           7868.08           LAND SURFACE =          -3691.47
            SOIL ZONE =         403573.13              SOIL ZONE =           -718.37
     UNSATURATED ZONE =       -1694484.54       UNSATURATED ZONE =         -18675.51
       SATURATED ZONE =         435182.26         SATURATED ZONE =           7308.37

 OVERALL BUDGET ERROR =          -1753.47           BUDGET ERROR =              3.50


  PERCENT DISCREPANCY =             -0.11    PERCENT DISCREPANCY =              0.02



1
 SUMMARY VOLUMETRIC BUDGET FOR GSFLOW 
 DATE: 11 25 1990              CUMULATIVE TIME STEP:      25
 MODFLOW STRESS PERIOD      3     CURRENT TIME STEP:      56     ITERATIONS:       6

 -----------------------------------------------------------------------------------

   CUMULATIVE VOLUMES               L**3   RATES FOR THIS TIME STEP           L**3/T
   ------------------                      ------------------------

                                     IN                                         IN
                                     --                                         --
        PRECIPITATION =        1009043.38          PRECIPITATION =         186542.88
           STREAMFLOW =                               STREAMFLOW =                  
     GW BOUNDARY FLOW =                         GW BOUNDARY FLOW =                  


                                    OUT                                        OUT
                                    ---                                        ---
   EVAPOTRANSPIRATION =        1214418.26     EVAPOTRANSPIRATION =           3759.75
           STREAMFLOW =         517642.94             STREAMFLOW =          10765.28
     GW BOUNDARY FLOW =           2021.68       GW BOUNDARY FLOW =             35.79

   INFLOWS - OUTFLOWS =        -725039.51     INFLOWS - OUTFLOWS =         171982.05
             --------                                   --------

 TOTAL STORAGE CHANGE =        -723304.81         STORAGE CHANGE =         171979.78
       --------------                             --------------
         LAND SURFACE =          86180.68           LAND SURFACE =          69567.13
            SOIL ZONE =         528221.59              SOIL ZONE =         114112.42
     UNSATURATED ZONE =       -1822516.75       UNSATURATED ZONE =         -17992.70
       SATURATED ZONE =         484809.68         SATURATED ZONE =           6292.93

 OVERALL BUDGET ERROR =          -1734.70           BUDGET ERROR =              2.27


  PERCENT DISCREPANCY =             -0.10    PERCENT DISCREPANCY =              0.00



1
 SUMMARY VOLUMETRIC BUDGET FOR GSFLOW 
 DATE: 12 02 1990              CUMULATIVE TIME STEP:       2
 MODFLOW STRESS PERIOD      4     CURRENT TIME STEP:      63     ITERATIONS:       6

 -----------------------------------------------------------------------------------

   CUMULATIVE VOLUMES               L**3   RATES FOR THIS TIME STEP           L**3/T
   ------------------                      ------------------------

                                     IN                                         IN
                                     --                                         --
        PRECIPITATION =        1449284.55          PRECIPITATION =                  
           STREAMFLOW =                               STREAMFLOW =                  
     GW BOUNDARY FLOW =                         GW BOUNDARY FLOW =                  


                                    OUT                                        OUT
                                    ---                                        ---
   EVAPOTRANSPIRATION =        1220913.98     EVAPOTRANSPIRATION =            234.69
           STREAMFLOW =         594657.51             STREAMFLOW =          11050.03
     GW BOUNDARY FLOW =           2272.19       GW BOUNDARY FLOW =             35.77

   INFLOWS - OUTFLOWS =        -368559.12     INFLOWS - OUTFLOWS =         -11320.49
             --------                                   --------

 TOTAL STORAGE CHANGE =        -366839.92         STORAGE CHANGE =         -11322.19
       --------------                             --------------
         LAND SURFACE =         486845.62           LAND SURFACE =           -339.04
            SOIL ZONE =         562208.52              SOIL ZONE =            235.28
     UNSATURATED ZONE =       -1945801.08       UNSATURATED ZONE =         -17368.65
       SATURATED ZONE =         529907.01         SATURATED ZONE =           6150.22

 OVERALL BUDGET ERROR =          -1719.20           BUDGET ERROR =              1.70


  PERCENT DISCREPANCY =             -0.09    PERCENT DISCREPANCY =              0.01



1
 SUMMARY VOLUMETRIC BUDGET FOR GSFLOW 
 DATE: 12 09 1990              CUMULATIVE TIME STEP:       9
 MODFLOW STRESS PERIOD      4     CURRENT TIME STEP:      70     ITERATIONS:       6

 -----------------------------------------------------------------------------------

   CUMULATIVE VOLUMES               L**3   RATES FOR THIS TIME STEP           L**3/T
   ------------------                      ------------------------

                                     IN                                         IN
                                     --                                         --
        PRECIPITATION =        1449284.55          PRECIPITATION =                  
           STREAMFLOW =                               STREAMFLOW =                  
     GW BOUNDARY FLOW =                         GW BOUNDARY FLOW =                  


                                    OUT                                        OUT
                                    ---                                        ---
   EVAPOTRANSPIRATION =        1296756.37     EVAPOTRANSPIRATION =          13851.42
           STREAMFLOW =         671792.06             STREAMFLOW =          10854.90
     GW BOUNDARY FLOW =           2522.16       GW BOUNDARY FLOW =             35.65

   INFLOWS - OUTFLOWS =        -521786.03     INFLOWS - OUTFLOWS =         -24741.97
             --------                                   --------

 TOTAL STORAGE CHANGE =        -520079.66         STORAGE CHANGE =         -24742.99
       --------------                             --------------
         LAND SURFACE =          67215.41           LAND SURFACE =         -45889.70
            SOIL ZONE =         909962.23              SOIL ZONE =          33566.40
     UNSATURATED ZONE =       -2063917.93       UNSATURATED ZONE =         -16538.70
       SATURATED ZONE =         566660.63         SATURATED ZONE =           4119.01

 OVERALL BUDGET ERROR =          -1706.37           BUDGET ERROR =              1.01


  PERCENT DISCREPANCY =             -0.09    PERCENT DISCREPANCY =              0.00



1
 SUMMARY VOLUMETRIC BUDGET FOR GSFLOW 
 DATE: 12 16 1990              CUMULATIVE TIME STEP:      16
 MODFLOW STRESS PERIOD      4     CURRENT TIME STEP:      77     ITERATIONS:       6

 -----------------------------------------------------------------------------------

   CUMULATIVE VOLUMES               L**3   RATES FOR THIS TIME STEP           L**3/T
   ------------------                      ------------------------

                                     IN                                         IN
                                     --                                         --
        PRECIPITATION =        1804962.84          PRECIPITATION =                  
           STREAMFLOW =                               STREAMFLOW =                  
     GW BOUNDARY FLOW =                         GW BOUNDARY FLOW =                  


                                    OUT                                        OUT
                                    ---                                        ---
   EVAPOTRANSPIRATION =        1325039.29     EVAPOTRANSPIRATION =                  
           STREAMFLOW =         750629.26             STREAMFLOW =          11407.42
     GW BOUNDARY FLOW =           2771.58       GW BOUNDARY FLOW =             35.61

   INFLOWS - OUTFLOWS =        -273477.29     INFLOWS - OUTFLOWS =         -11443.03
             --------                                   --------

 TOTAL STORAGE CHANGE =        -271782.11         STORAGE CHANGE =         -11443.88
       --------------                             --------------
         LAND SURFACE =         252566.26           LAND SURFACE =                  
            SOIL ZONE =        1055513.09              SOIL ZONE =            150.10
     UNSATURATED ZONE =       -2177611.26       UNSATURATED ZONE =         -15985.66
       SATURATED ZONE =         597749.79         SATURATED ZONE =           4391.67

 OVERALL BUDGET ERROR =          -1695.18           BUDGET ERROR =              0.85


  PERCENT DISCREPANCY =             -0.08    PERCENT DISCREPANCY =              0.01



1
 SUMMARY VOLUMETRIC BUDGET FOR GSFLOW 
 DATE: 12 23 1990              CUMULATIVE TIME STEP:      23
 MODFLOW STRESS PERIOD      4     CURRENT TIME STEP:      84     ITERATIONS:       6

 -----------------------------------------------------------------------------------

   CUMULATIVE VOLUMES               L**3   RATES FOR THIS TIME STEP           L**3/T
   ------------------                      ------------------------

                                     IN                                         IN
                                     --                                         --
        PRECIPITATION =        2276236.55          PRECIPITATION =                  
           STREAMFLOW =                               STREAMFLOW =                  
     GW BOUNDARY FLOW =              0.08       GW BOUNDARY FLOW =              0.04


                                    OUT                                        OUT
                                    ---                                        ---
   EVAPOTRANSPIRATION =        1326096.90     EVAPOTRANSPIRATION =                  
           STREAMFLOW =         830908.83             STREAMFLOW =          11507.03
     GW BOUNDARY FLOW =           3020.61       GW BOUNDARY FLOW =             35.57

   INFLOWS - OUTFLOWS =         116210.29     INFLOWS - OUTFLOWS =         -11542.56
             --------                                   --------

 TOTAL STORAGE CHANGE =         117904.26         STORAGE CHANGE =         -11542.46
       --------------                             --------------
         LAND SURFACE =         722784.34           LAND SURFACE =                  
            SOIL ZONE =        1056606.33              SOIL ZONE =            159.74
     UNSATURATED ZONE =       -2287052.02       UNSATURATED ZONE =         -15388.11
       SATURATED ZONE =         625565.62         SATURATED ZONE =           3685.91

 OVERALL BUDGET ERROR =          -1693.96           BUDGET ERROR =             -0.10


  PERCENT DISCREPANCY =             -0.07    PERCENT DISCREPANCY =             -0.00



1
 SUMMARY VOLUMETRIC BUDGET FOR GSFLOW 
 DATE: 12 30 1990              CUMULATIVE TIME STEP:      30
 MODFLOW STRESS PERIOD      4     CURRENT TIME STEP:      91     ITERATIONS:       5

 -----------------------------------------------------------------------------------

   CUMULATIVE VOLUMES               L**3   RATES FOR THIS TIME STEP           L**3/T
   ------------------                      ------------------------

                                     IN                                         IN
                                     --                                         --
        PRECIPITATION =        2276236.55          PRECIPITATION =                  
           STREAMFLOW =                               STREAMFLOW =                  
     GW BOUNDARY FLOW =              0.77       GW BOUNDARY FLOW =              0.14


                                    OUT                                        OUT
                                    ---                                        ---
   EVAPOTRANSPIRATION =        1326664.40     EVAPOTRANSPIRATION =                  
           STREAMFLOW =         911862.04             STREAMFLOW =          11605.80
     GW BOUNDARY FLOW =           3269.72       GW BOUNDARY FLOW =             35.60

   INFLOWS - OUTFLOWS =          34441.15     INFLOWS - OUTFLOWS =         -11641.26
             --------                                   --------

 TOTAL STORAGE CHANGE =          36143.20         STORAGE CHANGE =         -11639.32
       --------------                             --------------
         LAND SURFACE =         722216.94           LAND SURFACE =                  
            SOIL ZONE =        1057770.90              SOIL ZONE =            171.72
     UNSATURATED ZONE =       -2392590.53       UNSATURATED ZONE =         -14848.23
       SATURATED ZONE =         648745.88         SATURATED ZONE =           3037.19

 OVERALL BUDGET ERROR =          -1702.05           BUDGET ERROR =             -1.94


  PERCENT DISCREPANCY =             -0.07    PERCENT DISCREPANCY =             -0.02



1
 SUMMARY VOLUMETRIC BUDGET FOR GSFLOW 
 DATE: 01 06 1991              CUMULATIVE TIME STEP:       6
 MODFLOW STRESS PERIOD      5     CURRENT TIME STEP:      98     ITERATIONS:       5

 -----------------------------------------------------------------------------------

   CUMULATIVE VOLUMES               L**3   RATES FOR THIS TIME STEP           L**3/T
   ------------------                      ------------------------

                                     IN                                         IN
                                     --                                         --
        PRECIPITATION =        2276236.55          PRECIPITATION =                  
           STREAMFLOW =                               STREAMFLOW =                  
     GW BOUNDARY FLOW =              2.09       GW BOUNDARY FLOW =              0.22


                                    OUT                                        OUT
                                    ---                                        ---
   EVAPOTRANSPIRATION =        1354596.99     EVAPOTRANSPIRATION =           3327.36
           STREAMFLOW =         993448.99             STREAMFLOW =          11685.65
     GW BOUNDARY FLOW =           3519.65       GW BOUNDARY FLOW =             35.75

   INFLOWS - OUTFLOWS =         -75327.00     INFLOWS - OUTFLOWS =         -15048.54
             --------                                   --------

 TOTAL STORAGE CHANGE =         -73602.52         STORAGE CHANGE =         -15044.51
       --------------                             --------------
         LAND SURFACE =         585426.33           LAND SURFACE =          -8558.21
            SOIL ZONE =        1167904.28              SOIL ZONE =           5414.33
     UNSATURATED ZONE =       -2494159.78       UNSATURATED ZONE =         -14281.28
       SATURATED ZONE =         667226.65         SATURATED ZONE =           2380.64

 OVERALL BUDGET ERROR =          -1724.48           BUDGET ERROR =             -4.02


  PERCENT DISCREPANCY =             -0.07    PERCENT DISCREPANCY =             -0.03



1
 SUMMARY VOLUMETRIC BUDGET FOR GSFLOW 
 DATE: 01 13 1991              CUMULATIVE TIME STEP:      13
 MODFLOW STRESS PERIOD      5     CURRENT TIME STEP:     105     ITERATIONS:       6

 -----------------------------------------------------------------------------------

   CUMULATIVE VOLUMES               L**3   RATES FOR THIS TIME STEP           L**3/T
   ------------------                      ------------------------

                                     IN                                         IN
                                     --                                         --
        PRECIPITATION =        2596386.94          PRECIPITATION =          10327.43
           STREAMFLOW =                               STREAMFLOW =                  
     GW BOUNDARY FLOW =              4.01       GW BOUNDARY FLOW =              0.31


                                    OUT                                        OUT
                                    ---                                        ---
   EVAPOTRANSPIRATION =        1422755.24     EVAPOTRANSPIRATION =          18919.81
           STREAMFLOW =        1075212.82             STREAMFLOW =          11597.59
     GW BOUNDARY FLOW =           3769.86       GW BOUNDARY FLOW =             35.73

   INFLOWS - OUTFLOWS =          94653.02     INFLOWS - OUTFLOWS =         -20225.39
             --------                                   --------

 TOTAL STORAGE CHANGE =          96407.56         STORAGE CHANGE =         -20222.52
       --------------                             --------------
         LAND SURFACE =         517131.90           LAND SURFACE =        -134708.01
            SOIL ZONE =        1490844.78              SOIL ZONE =         127099.27
     UNSATURATED ZONE =       -2591711.69       UNSATURATED ZONE =         -13728.82
       SATURATED ZONE =         680142.57         SATURATED ZONE =           1115.05

 OVERALL BUDGET ERROR =          -1754.54           BUDGET ERROR =             -2.87


  PERCENT DISCREPANCY =             -0.07    PERCENT DISCREPANCY =             -0.01



1
 SUMMARY VOLUMETRIC BUDGET FOR GSFLOW 
 DATE: 01 20 1991              CUMULATIVE TIME STEP:      20
 MODFLOW STRESS PERIOD      5     CURRENT TIME STEP:     112     ITERATIONS:       5

 -----------------------------------------------------------------------------------

   CUMULATIVE VOLUMES               L**3   RATES FOR THIS TIME STEP           L**3/T
   ------------------                      ------------------------

                                     IN                                         IN
                                     --                                         --
        PRECIPITATION =        2596386.94          PRECIPITATION =                  
           STREAMFLOW =                               STREAMFLOW =                  
     GW BOUNDARY FLOW =              6.54       GW BOUNDARY FLOW =              0.40


                                    OUT                                        OUT
                                    ---                                        ---
   EVAPOTRANSPIRATION =        1501329.13     EVAPOTRANSPIRATION =           2597.54
           STREAMFLOW =        1157536.44             STREAMFLOW =          11793.37
     GW BOUNDARY FLOW =           4020.10       GW BOUNDARY FLOW =             35.75

   INFLOWS - OUTFLOWS =         -66492.19     INFLOWS - OUTFLOWS =         -14426.27
             --------                                   --------

 TOTAL STORAGE CHANGE =         -64692.61         STORAGE CHANGE =         -14418.66
       --------------                             --------------
         LAND SURFACE =         342485.19           LAND SURFACE =           -464.47
            SOIL ZONE =        1588907.41              SOIL ZONE =          -1911.27
     UNSATURATED ZONE =       -2685377.76       UNSATURATED ZONE =         -13154.78
       SATURATED ZONE =         689292.54         SATURATED ZONE =           1111.87

 OVERALL BUDGET ERROR =          -1799.58           BUDGET ERROR =             -7.61


  PERCENT DISCREPANCY =             -0.07    PERCENT DISCREPANCY =             -0.05



1
 SUMMARY VOLUMETRIC BUDGET FOR GSFLOW 
 DATE: 01 27 1991              CUMULATIVE TIME STEP:      27
 MODFLOW STRESS PERIOD      5     CURRENT TIME STEP:     119     ITERATIONS:       5

 -----------------------------------------------------------------------------------

   CUMULATIVE VOLUMES               L**3   RATES FOR THIS TIME STEP           L**3/T
   ------------------                      ------------------------

                                     IN                                         IN
                                     --                                         --
        PRECIPITATION =        2596386.94          PRECIPITATION =                  
           STREAMFLOW =                               STREAMFLOW =                  
     GW BOUNDARY FLOW =              9.64       GW BOUNDARY FLOW =              0.48


                                    OUT                                        OUT
                                    ---                                        ---
   EVAPOTRANSPIRATION =        1528185.93     EVAPOTRANSPIRATION =           1840.18
           STREAMFLOW =        1240303.44             STREAMFLOW =          11858.52
     GW BOUNDARY FLOW =           4270.30       GW BOUNDARY FLOW =             35.74

   INFLOWS - OUTFLOWS =        -176363.08     INFLOWS - OUTFLOWS =         -13733.96
             --------                                   --------

 TOTAL STORAGE CHANGE =        -174504.44         STORAGE CHANGE =         -13724.96
       --------------                             --------------
         LAND SURFACE =         307905.41           LAND SURFACE =           -546.58
            SOIL ZONE =        1598380.44              SOIL ZONE =          -1084.30
     UNSATURATED ZONE =       -2775549.51       UNSATURATED ZONE =         -12668.71
       SATURATED ZONE =         694759.21         SATURATED ZONE =            574.64

 OVERALL BUDGET ERROR =          -1858.64           BUDGET ERROR =             -9.01


  PERCENT DISCREPANCY =             -0.07    PERCENT DISCREPANCY =             -0.07



1
 SUMMARY VOLUMETRIC BUDGET FOR GSFLOW 
 DATE: 02 03 1991              CUMULATIVE TIME STEP:       3
 MODFLOW STRESS PERIOD      6     CURRENT TIME STEP:     126     ITERATIONS:       5

 -----------------------------------------------------------------------------------

   CUMULATIVE VOLUMES               L**3   RATES FOR THIS TIME STEP           L**3/T
   ------------------                      ------------------------

                                     IN                                         IN
                                     --                                         --
        PRECIPITATION =        3228422.31          PRECIPITATION =          30459.53
           STREAMFLOW =                               STREAMFLOW =                  
     GW BOUNDARY FLOW =             13.29       GW BOUNDARY FLOW =              0.55


                                    OUT                                        OUT
                                    ---                                        ---
   EVAPOTRANSPIRATION =        1637143.23     EVAPOTRANSPIRATION =          21776.88
           STREAMFLOW =        1323427.38             STREAMFLOW =          11900.62
     GW BOUNDARY FLOW =           4520.43       GW BOUNDARY FLOW =             35.73

   INFLOWS - OUTFLOWS =         263344.57     INFLOWS - OUTFLOWS =          -3253.14
             --------                                   --------

 TOTAL STORAGE CHANGE =         265271.98         STORAGE CHANGE =          -3242.83
       --------------                             --------------
         LAND SURFACE =         148156.03           LAND SURFACE =         -26520.09
            SOIL ZONE =        2283847.43              SOIL ZONE =          35557.81
     UNSATURATED ZONE =       -2862425.36       UNSATURATED ZONE =         -12198.77
       SATURATED ZONE =         695693.89         SATURATED ZONE =            -81.78

 OVERALL BUDGET ERROR =          -1927.41           BUDGET ERROR =            -10.31


  PERCENT DISCREPANCY =             -0.06    PERCENT DISCREPANCY =             -0.03



1
 SUMMARY VOLUMETRIC BUDGET FOR GSFLOW 
 DATE: 02 10 1991              CUMULATIVE TIME STEP:      10
 MODFLOW STRESS PERIOD      6     CURRENT TIME STEP:     133     ITERATIONS:       5

 -----------------------------------------------------------------------------------

   CUMULATIVE VOLUMES               L**3   RATES FOR THIS TIME STEP           L**3/T
   ------------------                      ------------------------

                                     IN                                         IN
                                     --                                         --
        PRECIPITATION =        3510173.01          PRECIPITATION =                  
           STREAMFLOW =                               STREAMFLOW =                  
     GW BOUNDARY FLOW =             17.47       GW BOUNDARY FLOW =              0.63


                                    OUT                                        OUT
                                    ---                                        ---
   EVAPOTRANSPIRATION =        1806837.22     EVAPOTRANSPIRATION =          25967.98
           STREAMFLOW =        1405477.38             STREAMFLOW =          11878.09
     GW BOUNDARY FLOW =           4770.41       GW BOUNDARY FLOW =             35.71

   INFLOWS - OUTFLOWS =         293105.47     INFLOWS - OUTFLOWS =         -37881.16
             --------                                   --------

 TOTAL STORAGE CHANGE =         295067.80         STORAGE CHANGE =         -37869.58
       --------------                             --------------
         LAND SURFACE =          66705.78           LAND SURFACE =          -7439.35
            SOIL ZONE =        2479219.27              SOIL ZONE =         -18260.18
     UNSATURATED ZONE =       -2945775.81       UNSATURATED ZONE =         -11718.82
       SATURATED ZONE =         694918.56         SATURATED ZONE =           -451.24

 OVERALL BUDGET ERROR =          -1962.33           BUDGET ERROR =            -11.58


  PERCENT DISCREPANCY =             -0.06    PERCENT DISCREPANCY =             -0.03



1
 SUMMARY VOLUMETRIC BUDGET FOR GSFLOW 
 DATE: 02 17 1991              CUMULATIVE TIME STEP:      17
 MODFLOW STRESS PERIOD      6     CURRENT TIME STEP:     140     ITERATIONS:       5

 -----------------------------------------------------------------------------------

   CUMULATIVE VOLUMES               L**3   RATES FOR THIS TIME STEP           L**3/T
   ------------------                      ------------------------

                                     IN                                         IN
                                     --                                         --
        PRECIPITATION =        3510173.01          PRECIPITATION =                  
           STREAMFLOW =                               STREAMFLOW =                  
     GW BOUNDARY FLOW =             22.14       GW BOUNDARY FLOW =              0.70


                                    OUT                                        OUT
                                    ---                                        ---
   EVAPOTRANSPIRATION =        2052400.69     EVAPOTRANSPIRATION =          24098.26
           STREAMFLOW =        1488840.09             STREAMFLOW =          11929.39
     GW BOUNDARY FLOW =           5020.31       GW BOUNDARY FLOW =             35.67

   INFLOWS - OUTFLOWS =         -36065.93     INFLOWS - OUTFLOWS =         -36062.62
             --------                                   --------

 TOTAL STORAGE CHANGE =         -34014.31         STORAGE CHANGE =         -36049.27
       --------------                             --------------
         LAND SURFACE =          14950.27           LAND SURFACE =           -975.14
            SOIL ZONE =        2286997.45              SOIL ZONE =         -22969.34
     UNSATURATED ZONE =       -3025513.76       UNSATURATED ZONE =         -11111.16
       SATURATED ZONE =         689551.74         SATURATED ZONE =           -993.63

 OVERALL BUDGET ERROR =          -2051.62           BUDGET ERROR =            -13.36


  PERCENT DISCREPANCY =             -0.06    PERCENT DISCREPANCY =             -0.04



1
 SUMMARY VOLUMETRIC BUDGET FOR GSFLOW 
 DATE: 02 24 1991              CUMULATIVE TIME STEP:      24
 MODFLOW STRESS PERIOD      6     CURRENT TIME STEP:     147     ITERATIONS:       5

 -----------------------------------------------------------------------------------

   CUMULATIVE VOLUMES               L**3   RATES FOR THIS TIME STEP           L**3/T
   ------------------                      ------------------------

                                     IN                                         IN
                                     --                                         --
        PRECIPITATION =        3510173.01          PRECIPITATION =                  
           STREAMFLOW =                               STREAMFLOW =                  
     GW BOUNDARY FLOW =             27.28       GW BOUNDARY FLOW =              0.76


                                    OUT                                        OUT
                                    ---                                        ---
   EVAPOTRANSPIRATION =        2268368.51     EVAPOTRANSPIRATION =          21972.56
           STREAMFLOW =        1571157.43             STREAMFLOW =          11927.02
     GW BOUNDARY FLOW =           5269.31       GW BOUNDARY FLOW =             35.50

   INFLOWS - OUTFLOWS =        -334594.96     INFLOWS - OUTFLOWS =         -33934.32
             --------                                   --------

 TOTAL STORAGE CHANGE =        -332496.20         STORAGE CHANGE =         -33919.26
       --------------                             --------------
         LAND SURFACE =           6004.72           LAND SURFACE =           -187.76
            SOIL ZONE =        2081286.56              SOIL ZONE =         -21582.71
     UNSATURATED ZONE =       -3101709.74       UNSATURATED ZONE =         -10701.15
       SATURATED ZONE =         681922.26         SATURATED ZONE =          -1447.65

 OVERALL BUDGET ERROR =          -2098.75           BUDGET ERROR =            -15.06


  PERCENT DISCREPANCY =             -0.05    PERCENT DISCREPANCY =             -0.04



1
 SUMMARY VOLUMETRIC BUDGET FOR GSFLOW 
 DATE: 03 03 1991              CUMULATIVE TIME STEP:       3
 MODFLOW STRESS PERIOD      7     CURRENT TIME STEP:     154     ITERATIONS:       5

 -----------------------------------------------------------------------------------

   CUMULATIVE VOLUMES               L**3   RATES FOR THIS TIME STEP           L**3/T
   ------------------                      ------------------------

                                     IN                                         IN
                                     --                                         --
        PRECIPITATION =        6220189.63          PRECIPITATION =        1243187.24
           STREAMFLOW =                               STREAMFLOW =                  
     GW BOUNDARY FLOW =             32.88       GW BOUNDARY FLOW =              0.83


                                    OUT                                        OUT
                                    ---                                        ---
   EVAPOTRANSPIRATION =        2421668.71     EVAPOTRANSPIRATION =           8348.06
           STREAMFLOW =        1654448.85             STREAMFLOW =          11832.39
     GW BOUNDARY FLOW =           5517.15       GW BOUNDARY FLOW =             35.32

   INFLOWS - OUTFLOWS =        2138587.81     INFLOWS - OUTFLOWS =        1222972.30
             --------                                   --------

 TOTAL STORAGE CHANGE =        2140787.86         STORAGE CHANGE =        1222988.64
       --------------                             --------------
         LAND SURFACE =        2351702.99           LAND SURFACE =         893791.18
            SOIL ZONE =        2295505.59              SOIL ZONE =         341864.42
     UNSATURATED ZONE =       -3174961.98       UNSATURATED ZONE =         -10291.53
       SATURATED ZONE =         668541.26         SATURATED ZONE =          -2375.43

 OVERALL BUDGET ERROR =          -2200.05           BUDGET ERROR =            -16.34


  PERCENT DISCREPANCY =             -0.04    PERCENT DISCREPANCY =             -0.00



1
 SUMMARY VOLUMETRIC BUDGET FOR GSFLOW 
 DATE: 03 10 1991              CUMULATIVE TIME STEP:      10
 MODFLOW STRESS PERIOD      7     CURRENT TIME STEP:     161     ITERATIONS:       5

 -----------------------------------------------------------------------------------

   CUMULATIVE VOLUMES               L**3   RATES FOR THIS TIME STEP           L**3/T
   ------------------                      ------------------------

                                     IN                                         IN
                                     --                                         --
        PRECIPITATION =        8746030.42          PRECIPITATION =          32888.55
           STREAMFLOW =                               STREAMFLOW =                  
     GW BOUNDARY FLOW =             38.92       GW BOUNDARY FLOW =              0.89


                                    OUT                                        OUT
                                    ---                                        ---
   EVAPOTRANSPIRATION =        2485790.27     EVAPOTRANSPIRATION =           7390.06
           STREAMFLOW =        1754650.94             STREAMFLOW =          12554.10
     GW BOUNDARY FLOW =           5764.39       GW BOUNDARY FLOW =             35.23

   INFLOWS - OUTFLOWS =        4499863.74     INFLOWS - OUTFLOWS =          12910.05
             --------                                   --------

 TOTAL STORAGE CHANGE =        4502141.09         STORAGE CHANGE =          12927.91
       --------------                             --------------
         LAND SURFACE =        2489047.44           LAND SURFACE =         -20139.62
            SOIL ZONE =        4552209.12              SOIL ZONE =          36799.18
     UNSATURATED ZONE =       -3193216.37       UNSATURATED ZONE =          -1493.50
       SATURATED ZONE =         654100.90         SATURATED ZONE =          -2238.15

 OVERALL BUDGET ERROR =          -2277.35           BUDGET ERROR =            -17.86


  PERCENT DISCREPANCY =             -0.03    PERCENT DISCREPANCY =             -0.05



1
 SUMMARY VOLUMETRIC BUDGET FOR GSFLOW 
 DATE: 03 17 1991              CUMULATIVE TIME STEP:      17
 MODFLOW STRESS PERIOD      7     CURRENT TIME STEP:     168     ITERATIONS:       5

 -----------------------------------------------------------------------------------

   CUMULATIVE VOLUMES               L**3   RATES FOR THIS TIME STEP           L**3/T
   ------------------                      ------------------------

                                     IN                                         IN
                                     --                                         --
        PRECIPITATION =        9897129.71          PRECIPITATION =         157865.04
           STREAMFLOW =                               STREAMFLOW =                  
     GW BOUNDARY FLOW =             45.38       GW BOUNDARY FLOW =              0.95


                                    OUT                                        OUT
                                    ---                                        ---
   EVAPOTRANSPIRATION =        2509249.58     EVAPOTRANSPIRATION =           6883.20
           STREAMFLOW =        1843843.91             STREAMFLOW =          12796.83
     GW BOUNDARY FLOW =           6010.56       GW BOUNDARY FLOW =             35.11

   INFLOWS - OUTFLOWS =        5538071.05     INFLOWS - OUTFLOWS =         138150.85
             --------                                   --------

 TOTAL STORAGE CHANGE =        5540457.97         STORAGE CHANGE =         138169.99
       --------------                             --------------
         LAND SURFACE =        3616636.03           LAND SURFACE =         151296.14
            SOIL ZONE =        4490691.18              SOIL ZONE =          -8419.62
     UNSATURATED ZONE =       -3205353.22       UNSATURATED ZONE =          -2141.68
       SATURATED ZONE =         638483.99         SATURATED ZONE =          -2564.85

 OVERALL BUDGET ERROR =          -2386.92           BUDGET ERROR =            -19.14


  PERCENT DISCREPANCY =             -0.02    PERCENT DISCREPANCY =             -0.01



1
 SUMMARY VOLUMETRIC BUDGET FOR GSFLOW 
 DATE: 03 24 1991              CUMULATIVE TIME STEP:      24
 MODFLOW STRESS PERIOD      7     CURRENT TIME STEP:     175     ITERATIONS:       5

 -----------------------------------------------------------------------------------

   CUMULATIVE VOLUMES               L**3   RATES FOR THIS TIME STEP           L**3/T
   ------------------                      ------------------------

                                     IN                                         IN
                                     --                                         --
        PRECIPITATION =        1.1673D+07          PRECIPITATION =        1230031.83
           STREAMFLOW =                               STREAMFLOW =                  
     GW BOUNDARY FLOW =             52.25       GW BOUNDARY FLOW =              1.01


                                    OUT                                        OUT
                                    ---                                        ---
   EVAPOTRANSPIRATION =        2543876.19     EVAPOTRANSPIRATION =           4288.35
           STREAMFLOW =        1934983.11             STREAMFLOW =          13187.03
     GW BOUNDARY FLOW =           6255.86       GW BOUNDARY FLOW =             34.99

   INFLOWS - OUTFLOWS =        7188048.59     INFLOWS - OUTFLOWS =        1212522.47
             --------                                   --------

 TOTAL STORAGE CHANGE =        7190549.94         STORAGE CHANGE =        1212542.03
       --------------                             --------------
         LAND SURFACE =        5346769.67           LAND SURFACE =        1227877.70
            SOIL ZONE =        4444585.44              SOIL ZONE =         -10319.12
     UNSATURATED ZONE =       -3221505.36       UNSATURATED ZONE =          -2440.19
       SATURATED ZONE =         620700.20         SATURATED ZONE =          -2576.35

 OVERALL BUDGET ERROR =          -2501.35           BUDGET ERROR =            -19.57


  PERCENT DISCREPANCY =             -0.02    PERCENT DISCREPANCY =             -0.00



1
 SUMMARY VOLUMETRIC BUDGET FOR GSFLOW 
 DATE: 03 31 1991              CUMULATIVE TIME STEP:      31
 MODFLOW STRESS PERIOD      7     CURRENT TIME STEP:     182     ITERATIONS:       5

 -----------------------------------------------------------------------------------

   CUMULATIVE VOLUMES               L**3   RATES FOR THIS TIME STEP           L**3/T
   ------------------                      ------------------------

                                     IN                                         IN
                                     --                                         --
        PRECIPITATION =        1.2495D+07          PRECIPITATION =                  
           STREAMFLOW =                               STREAMFLOW =                  
     GW BOUNDARY FLOW =             59.52       GW BOUNDARY FLOW =              1.06


                                    OUT                                        OUT
                                    ---                                        ---
   EVAPOTRANSPIRATION =        2664894.06     EVAPOTRANSPIRATION =          47925.31
           STREAMFLOW =        2029966.45             STREAMFLOW =          14229.61
     GW BOUNDARY FLOW =           6500.46       GW BOUNDARY FLOW =             34.92

   INFLOWS - OUTFLOWS =        7794023.83     INFLOWS - OUTFLOWS =         -62188.78
             --------                                   --------

 TOTAL STORAGE CHANGE =        7796663.69         STORAGE CHANGE =         -62168.70
       --------------                             --------------
         LAND SURFACE =        5891403.37           LAND SURFACE =        -150773.77
            SOIL ZONE =        4540482.69              SOIL ZONE =          92476.54
     UNSATURATED ZONE =       -3237517.61       UNSATURATED ZONE =          -1221.94
       SATURATED ZONE =         602295.24         SATURATED ZONE =          -2649.54

 OVERALL BUDGET ERROR =          -2639.85           BUDGET ERROR =            -20.08


  PERCENT DISCREPANCY =             -0.02    PERCENT DISCREPANCY =             -0.03



1
 SUMMARY VOLUMETRIC BUDGET FOR GSFLOW 
 DATE: 04 07 1991              CUMULATIVE TIME STEP:       7
 MODFLOW STRESS PERIOD      8     CURRENT TIME STEP:     189     ITERATIONS:       5

 -----------------------------------------------------------------------------------

   CUMULATIVE VOLUMES               L**3   RATES FOR THIS TIME STEP           L**3/T
   ------------------                      ------------------------

                                     IN                                         IN
                                     --                                         --
        PRECIPITATION =        1.3018D+07          PRECIPITATION =                  
           STREAMFLOW =                               STREAMFLOW =                  
     GW BOUNDARY FLOW =             67.15       GW BOUNDARY FLOW =              1.11


                                    OUT                                        OUT
                                    ---                                        ---
   EVAPOTRANSPIRATION =        2972777.34     EVAPOTRANSPIRATION =          15898.60
           STREAMFLOW =        2256680.06             STREAMFLOW =          42153.29
     GW BOUNDARY FLOW =           6746.52       GW BOUNDARY FLOW =             35.31

   INFLOWS - OUTFLOWS =        7781599.98     INFLOWS - OUTFLOWS =         -58086.10
             --------                                   --------

 TOTAL STORAGE CHANGE =        7784335.32         STORAGE CHANGE =         -58068.11
       --------------                             --------------
         LAND SURFACE =        4251813.71           LAND SURFACE =         -72897.15
            SOIL ZONE =        6149637.01              SOIL ZONE =           5625.45
     UNSATURATED ZONE =       -3203186.71       UNSATURATED ZONE =          11040.97
       SATURATED ZONE =         586071.31         SATURATED ZONE =          -1837.38

 OVERALL BUDGET ERROR =          -2735.34           BUDGET ERROR =            -17.99


  PERCENT DISCREPANCY =             -0.02    PERCENT DISCREPANCY =             -0.03



1
 SUMMARY VOLUMETRIC BUDGET FOR GSFLOW 
 DATE: 04 14 1991              CUMULATIVE TIME STEP:      14
 MODFLOW STRESS PERIOD      8     CURRENT TIME STEP:     196     ITERATIONS:       7

 -----------------------------------------------------------------------------------

   CUMULATIVE VOLUMES               L**3   RATES FOR THIS TIME STEP           L**3/T
   ------------------                      ------------------------

                                     IN                                         IN
                                     --                                         --
        PRECIPITATION =        1.3018D+07          PRECIPITATION =                  
           STREAMFLOW =                               STREAMFLOW =                  
     GW BOUNDARY FLOW =             75.11       GW BOUNDARY FLOW =              1.16


                                    OUT                                        OUT
                                    ---                                        ---
   EVAPOTRANSPIRATION =        3156700.16     EVAPOTRANSPIRATION =          42060.22
           STREAMFLOW =        2682041.26             STREAMFLOW =          73957.82
     GW BOUNDARY FLOW =           6994.89       GW BOUNDARY FLOW =             35.59

   INFLOWS - OUTFLOWS =        7172075.54     INFLOWS - OUTFLOWS =        -116052.48
             --------                                   --------

 TOTAL STORAGE CHANGE =        7174844.64         STORAGE CHANGE =        -116049.68
       --------------                             --------------
         LAND SURFACE =        3591590.24           LAND SURFACE =        -191145.76
            SOIL ZONE =        6135501.39              SOIL ZONE =          65974.46
     UNSATURATED ZONE =       -3129527.32       UNSATURATED ZONE =          10048.34
       SATURATED ZONE =         577280.33         SATURATED ZONE =           -926.72

 OVERALL BUDGET ERROR =          -2769.10           BUDGET ERROR =             -2.80


  PERCENT DISCREPANCY =             -0.02    PERCENT DISCREPANCY =             -0.00



1
 SUMMARY VOLUMETRIC BUDGET FOR GSFLOW 
 DATE: 04 21 1991              CUMULATIVE TIME STEP:      21
 MODFLOW STRESS PERIOD      8     CURRENT TIME STEP:     203     ITERATIONS:       9

 -----------------------------------------------------------------------------------

   CUMULATIVE VOLUMES               L**3   RATES FOR THIS TIME STEP           L**3/T
   ------------------                      ------------------------

                                     IN                                         IN
                                     --                                         --
        PRECIPITATION =        1.3034D+07          PRECIPITATION =                  
           STREAMFLOW =                               STREAMFLOW =                  
     GW BOUNDARY FLOW =             83.37       GW BOUNDARY FLOW =              1.20


                                    OUT                                        OUT
                                    ---                                        ---
   EVAPOTRANSPIRATION =        3410321.17     EVAPOTRANSPIRATION =          46843.68
           STREAMFLOW =        3233534.36             STREAMFLOW =          90711.64
     GW BOUNDARY FLOW =           7243.95       GW BOUNDARY FLOW =             35.67

   INFLOWS - OUTFLOWS =        6383045.98     INFLOWS - OUTFLOWS =        -137589.79
             --------                                   --------

 TOTAL STORAGE CHANGE =        6385830.47         STORAGE CHANGE =        -137588.82
       --------------                             --------------
         LAND SURFACE =        2434561.50           LAND SURFACE =        -213934.43
            SOIL ZONE =        6434242.37              SOIL ZONE =          64745.33
     UNSATURATED ZONE =       -3055355.42       UNSATURATED ZONE =          12046.00
       SATURATED ZONE =         572382.03         SATURATED ZONE =           -445.71

 OVERALL BUDGET ERROR =          -2784.49           BUDGET ERROR =             -0.97


  PERCENT DISCREPANCY =             -0.02    PERCENT DISCREPANCY =             -0.00



1
 SUMMARY VOLUMETRIC BUDGET FOR GSFLOW 
 DATE: 04 28 1991              CUMULATIVE TIME STEP:      28
 MODFLOW STRESS PERIOD      8     CURRENT TIME STEP:     210     ITERATIONS:      10

 -----------------------------------------------------------------------------------

   CUMULATIVE VOLUMES               L**3   RATES FOR THIS TIME STEP           L**3/T
   ------------------                      ------------------------

                                     IN                                         IN
                                     --                                         --
        PRECIPITATION =        1.3303D+07          PRECIPITATION =                  
           STREAMFLOW =                               STREAMFLOW =                  
     GW BOUNDARY FLOW =             91.90       GW BOUNDARY FLOW =              1.24


                                    OUT                                        OUT
                                    ---                                        ---
   EVAPOTRANSPIRATION =        3678423.13     EVAPOTRANSPIRATION =          58070.50
           STREAMFLOW =        3881202.33             STREAMFLOW =          91882.05
     GW BOUNDARY FLOW =           7493.31       GW BOUNDARY FLOW =             35.57

   INFLOWS - OUTFLOWS =        5736403.64     INFLOWS - OUTFLOWS =        -149986.88
             --------                                   --------

 TOTAL STORAGE CHANGE =        5739201.61         STORAGE CHANGE =        -149986.23
       --------------                             --------------
         LAND SURFACE =        1696015.43           LAND SURFACE =        -133870.58
            SOIL ZONE =        6442585.47              SOIL ZONE =         -28008.40
     UNSATURATED ZONE =       -2971408.15       UNSATURATED ZONE =          11263.79
       SATURATED ZONE =         572008.86         SATURATED ZONE =            628.95

 OVERALL BUDGET ERROR =          -2797.97           BUDGET ERROR =             -0.64


  PERCENT DISCREPANCY =             -0.02    PERCENT DISCREPANCY =             -0.00



1
 SUMMARY VOLUMETRIC BUDGET FOR GSFLOW 
 DATE: 05 05 1991              CUMULATIVE TIME STEP:       5
 MODFLOW STRESS PERIOD      9     CURRENT TIME STEP:     217     ITERATIONS:       7

 -----------------------------------------------------------------------------------

   CUMULATIVE VOLUMES               L**3   RATES FOR THIS TIME STEP           L**3/T
   ------------------                      ------------------------

                                     IN                                         IN
                                     --                                         --
        PRECIPITATION =        1.3510D+07          PRECIPITATION =                  
           STREAMFLOW =                               STREAMFLOW =                  
     GW BOUNDARY FLOW =            100.70       GW BOUNDARY FLOW =              1.27


                                    OUT                                        OUT
                                    ---                                        ---
   EVAPOTRANSPIRATION =        4055180.89     EVAPOTRANSPIRATION =          90182.26
           STREAMFLOW =        4452339.55             STREAMFLOW =          83032.03
     GW BOUNDARY FLOW =           7740.99       GW BOUNDARY FLOW =             35.33

   INFLOWS - OUTFLOWS =        4994547.40     INFLOWS - OUTFLOWS =        -173248.35
             --------                                   --------

 TOTAL STORAGE CHANGE =        4997353.22         STORAGE CHANGE =        -173247.71
       --------------                             --------------
         LAND SURFACE =        1002302.70           LAND SURFACE =        -146993.91
            SOIL ZONE =        6321763.47              SOIL ZONE =         -36474.14
     UNSATURATED ZONE =       -2899033.12       UNSATURATED ZONE =          10147.38
       SATURATED ZONE =         572320.17         SATURATED ZONE =             72.97

 OVERALL BUDGET ERROR =          -2805.82           BUDGET ERROR =             -0.64


  PERCENT DISCREPANCY =             -0.02    PERCENT DISCREPANCY =             -0.00



1
 SUMMARY VOLUMETRIC BUDGET FOR GSFLOW 
 DATE: 05 12 1991              CUMULATIVE TIME STEP:      12
 MODFLOW STRESS PERIOD      9     CURRENT TIME STEP:     224     ITERATIONS:       7

 -----------------------------------------------------------------------------------

   CUMULATIVE VOLUMES               L**3   RATES FOR THIS TIME STEP           L**3/T
   ------------------                      ------------------------

                                     IN                                         IN
                                     --                                         --
        PRECIPITATION =        1.4029D+07          PRECIPITATION =                  
           STREAMFLOW =                               STREAMFLOW =                  
     GW BOUNDARY FLOW =            109.77       GW BOUNDARY FLOW =              1.31


                                    OUT                                        OUT
                                    ---                                        ---
   EVAPOTRANSPIRATION =        4450568.16     EVAPOTRANSPIRATION =          68750.33
           STREAMFLOW =        4987634.00             STREAMFLOW =          85389.68
     GW BOUNDARY FLOW =           7987.01       GW BOUNDARY FLOW =             35.17

   INFLOWS - OUTFLOWS =        4583142.75     INFLOWS - OUTFLOWS =        -154173.86
             --------                                   --------

 TOTAL STORAGE CHANGE =        4585952.11         STORAGE CHANGE =        -154173.40
       --------------                             --------------
         LAND SURFACE =         554756.95           LAND SURFACE =        -204088.73
            SOIL ZONE =        6293377.91              SOIL ZONE =          40897.20
     UNSATURATED ZONE =       -2837081.62       UNSATURATED ZONE =           8737.96
       SATURATED ZONE =         574898.87         SATURATED ZONE =            280.17

 OVERALL BUDGET ERROR =          -2809.36           BUDGET ERROR =             -0.47


  PERCENT DISCREPANCY =             -0.02    PERCENT DISCREPANCY =             -0.00



1
 SUMMARY VOLUMETRIC BUDGET FOR GSFLOW 
 DATE: 05 19 1991              CUMULATIVE TIME STEP:      19
 MODFLOW STRESS PERIOD      9     CURRENT TIME STEP:     231     ITERATIONS:       7

 -----------------------------------------------------------------------------------

   CUMULATIVE VOLUMES               L**3   RATES FOR THIS TIME STEP           L**3/T
   ------------------                      ------------------------

                                     IN                                         IN
                                     --                                         --
        PRECIPITATION =        1.4365D+07          PRECIPITATION =                  
           STREAMFLOW =                               STREAMFLOW =                  
     GW BOUNDARY FLOW =            119.10       GW BOUNDARY FLOW =              1.35


                                    OUT                                        OUT
                                    ---                                        ---
   EVAPOTRANSPIRATION =        4889003.86     EVAPOTRANSPIRATION =          20369.32
           STREAMFLOW =        5433846.87             STREAMFLOW =          55149.43
     GW BOUNDARY FLOW =           8230.75       GW BOUNDARY FLOW =             34.64

   INFLOWS - OUTFLOWS =        4034415.94     INFLOWS - OUTFLOWS =         -75552.04
             --------                                   --------

 TOTAL STORAGE CHANGE =        4037225.55         STORAGE CHANGE =         -75552.40
       --------------                             --------------
         LAND SURFACE =         218155.85           LAND SURFACE =         -22216.95
            SOIL ZONE =        6030242.47              SOIL ZONE =         -59323.84
     UNSATURATED ZONE =       -2789208.40       UNSATURATED ZONE =           5421.36
       SATURATED ZONE =         578035.63         SATURATED ZONE =            567.03

 OVERALL BUDGET ERROR =          -2809.62           BUDGET ERROR =              0.36


  PERCENT DISCREPANCY =             -0.02    PERCENT DISCREPANCY =              0.00



1
 SUMMARY VOLUMETRIC BUDGET FOR GSFLOW 
 DATE: 05 26 1991              CUMULATIVE TIME STEP:      26
 MODFLOW STRESS PERIOD      9     CURRENT TIME STEP:     238     ITERATIONS:       6

 -----------------------------------------------------------------------------------

   CUMULATIVE VOLUMES               L**3   RATES FOR THIS TIME STEP           L**3/T
   ------------------                      ------------------------

                                     IN                                         IN
                                     --                                         --
        PRECIPITATION =        1.4426D+07          PRECIPITATION =                  
           STREAMFLOW =                               STREAMFLOW =                  
     GW BOUNDARY FLOW =            128.72       GW BOUNDARY FLOW =              1.39


                                    OUT                                        OUT
                                    ---                                        ---
   EVAPOTRANSPIRATION =        5573480.10     EVAPOTRANSPIRATION =          76940.71
           STREAMFLOW =        5737261.91             STREAMFLOW =          30975.87
     GW BOUNDARY FLOW =           8471.39       GW BOUNDARY FLOW =             34.12

   INFLOWS - OUTFLOWS =        3107412.93     INFLOWS - OUTFLOWS =        -107949.31
             --------                                   --------

 TOTAL STORAGE CHANGE =        3110221.12         STORAGE CHANGE =        -107948.45
       --------------                             --------------
         LAND SURFACE =          51493.15           LAND SURFACE =          -7682.13
            SOIL ZONE =        5248550.64              SOIL ZONE =         -99892.77
     UNSATURATED ZONE =       -2768974.89       UNSATURATED ZONE =           -123.21
       SATURATED ZONE =         579152.22         SATURATED ZONE =           -250.33

 OVERALL BUDGET ERROR =          -2808.19           BUDGET ERROR =             -0.86


  PERCENT DISCREPANCY =             -0.02    PERCENT DISCREPANCY =             -0.00



1
 SUMMARY VOLUMETRIC BUDGET FOR GSFLOW 
 DATE: 06 02 1991              CUMULATIVE TIME STEP:       2
 MODFLOW STRESS PERIOD     10     CURRENT TIME STEP:     245     ITERATIONS:       6

 -----------------------------------------------------------------------------------

   CUMULATIVE VOLUMES               L**3   RATES FOR THIS TIME STEP           L**3/T
   ------------------                      ------------------------

                                     IN                                         IN
                                     --                                         --
        PRECIPITATION =        1.4671D+07          PRECIPITATION =                  
           STREAMFLOW =                               STREAMFLOW =                  
     GW BOUNDARY FLOW =            138.62       GW BOUNDARY FLOW =              1.43


                                    OUT                                        OUT
                                    ---                                        ---
   EVAPOTRANSPIRATION =        6162291.09     EVAPOTRANSPIRATION =         127630.39
           STREAMFLOW =        5946726.73             STREAMFLOW =          25628.55
     GW BOUNDARY FLOW =           8709.47       GW BOUNDARY FLOW =             33.87

   INFLOWS - OUTFLOWS =        2553386.14     INFLOWS - OUTFLOWS =        -153291.38
             --------                                   --------

 TOTAL STORAGE CHANGE =        2556214.09         STORAGE CHANGE =        -153287.78
       --------------                             --------------
         LAND SURFACE =          18305.18           LAND SURFACE =          -3906.15
            SOIL ZONE =        4746542.35              SOIL ZONE =        -145304.25
     UNSATURATED ZONE =       -2783289.81       UNSATURATED ZONE =          -3147.85
       SATURATED ZONE =         574656.37         SATURATED ZONE =           -929.53

 OVERALL BUDGET ERROR =          -2827.95           BUDGET ERROR =             -3.60


  PERCENT DISCREPANCY =             -0.02    PERCENT DISCREPANCY =             -0.00



1
 SUMMARY VOLUMETRIC BUDGET FOR GSFLOW 
 DATE: 06 09 1991              CUMULATIVE TIME STEP:       9
 MODFLOW STRESS PERIOD     10     CURRENT TIME STEP:     252     ITERATIONS:       7

 -----------------------------------------------------------------------------------

   CUMULATIVE VOLUMES               L**3   RATES FOR THIS TIME STEP           L**3/T
   ------------------                      ------------------------

                                     IN                                         IN
                                     --                                         --
        PRECIPITATION =        1.4671D+07          PRECIPITATION =                  
           STREAMFLOW =                               STREAMFLOW =                  
     GW BOUNDARY FLOW =            148.82       GW BOUNDARY FLOW =              1.47


                                    OUT                                        OUT
                                    ---                                        ---
   EVAPOTRANSPIRATION =        6951189.56     EVAPOTRANSPIRATION =         172555.02
           STREAMFLOW =        6097074.85             STREAMFLOW =          18645.73
     GW BOUNDARY FLOW =           8945.41       GW BOUNDARY FLOW =             33.58

   INFLOWS - OUTFLOWS =        1613913.79     INFLOWS - OUTFLOWS =        -191232.86
             --------                                   --------

 TOTAL STORAGE CHANGE =        1616781.71         STORAGE CHANGE =        -191226.66
       --------------                             --------------
         LAND SURFACE =           3417.33           LAND SURFACE =          -2018.63
            SOIL ZONE =        3869724.94              SOIL ZONE =        -180603.17
     UNSATURATED ZONE =       -2820192.37       UNSATURATED ZONE =          -6467.54
       SATURATED ZONE =         563831.80         SATURATED ZONE =          -2137.31

 OVERALL BUDGET ERROR =          -2867.91           BUDGET ERROR =             -6.21


  PERCENT DISCREPANCY =             -0.02    PERCENT DISCREPANCY =             -0.00



1
 SUMMARY VOLUMETRIC BUDGET FOR GSFLOW 
 DATE: 06 16 1991              CUMULATIVE TIME STEP:      16
 MODFLOW STRESS PERIOD     10     CURRENT TIME STEP:     259     ITERATIONS:       6

 -----------------------------------------------------------------------------------

   CUMULATIVE VOLUMES               L**3   RATES FOR THIS TIME STEP           L**3/T
   ------------------                      ------------------------

                                     IN                                         IN
                                     --                                         --
        PRECIPITATION =        1.4671D+07          PRECIPITATION =                  
           STREAMFLOW =                               STREAMFLOW =                  
     GW BOUNDARY FLOW =            159.30       GW BOUNDARY FLOW =              1.51


                                    OUT                                        OUT
                                    ---                                        ---
   EVAPOTRANSPIRATION =        7968268.04     EVAPOTRANSPIRATION =         117054.45
           STREAMFLOW =        6214513.11             STREAMFLOW =          16218.54
     GW BOUNDARY FLOW =           9179.62       GW BOUNDARY FLOW =             33.38

   INFLOWS - OUTFLOWS =         479173.32     INFLOWS - OUTFLOWS =        -133304.85
             --------                                   --------

 TOTAL STORAGE CHANGE =         482105.40         STORAGE CHANGE =        -133293.96
       --------------                             --------------
         LAND SURFACE =             89.42           LAND SURFACE =            -43.13
            SOIL ZONE =        2843487.48              SOIL ZONE =        -113816.88
     UNSATURATED ZONE =       -2906133.52       UNSATURATED ZONE =         -16230.36
       SATURATED ZONE =         544662.02         SATURATED ZONE =          -3203.58

 OVERALL BUDGET ERROR =          -2932.08           BUDGET ERROR =            -10.89


  PERCENT DISCREPANCY =             -0.02    PERCENT DISCREPANCY =             -0.01



1
 SUMMARY VOLUMETRIC BUDGET FOR GSFLOW 
 DATE: 06 23 1991              CUMULATIVE TIME STEP:      23
 MODFLOW STRESS PERIOD     10     CURRENT TIME STEP:     266     ITERATIONS:       5

 -----------------------------------------------------------------------------------

   CUMULATIVE VOLUMES               L**3   RATES FOR THIS TIME STEP           L**3/T
   ------------------                      ------------------------

                                     IN                                         IN
                                     --                                         --
        PRECIPITATION =        1.4671D+07          PRECIPITATION =                  
           STREAMFLOW =                               STREAMFLOW =                  
     GW BOUNDARY FLOW =            169.87       GW BOUNDARY FLOW =              1.48


                                    OUT                                        OUT
                                    ---                                        ---
   EVAPOTRANSPIRATION =        8511936.09     EVAPOTRANSPIRATION =          39012.72
           STREAMFLOW =        6324523.57             STREAMFLOW =          15429.25
     GW BOUNDARY FLOW =           9412.63       GW BOUNDARY FLOW =             33.22

   INFLOWS - OUTFLOWS =        -174727.62     INFLOWS - OUTFLOWS =         -54473.71
             --------                                   --------

 TOTAL STORAGE CHANGE =        -171708.73         STORAGE CHANGE =         -54452.70
       --------------                             --------------
         LAND SURFACE =             10.53           LAND SURFACE =             -3.38
            SOIL ZONE =        2332998.99              SOIL ZONE =         -36364.71
     UNSATURATED ZONE =       -3019413.95       UNSATURATED ZONE =         -13261.59
       SATURATED ZONE =         514695.70         SATURATED ZONE =          -4823.02

 OVERALL BUDGET ERROR =          -3018.89           BUDGET ERROR =            -21.01


  PERCENT DISCREPANCY =             -0.02    PERCENT DISCREPANCY =             -0.04



1
 SUMMARY VOLUMETRIC BUDGET FOR GSFLOW 
 DATE: 06 30 1991              CUMULATIVE TIME STEP:      30
 MODFLOW STRESS PERIOD     10     CURRENT TIME STEP:     273     ITERATIONS:       6

 -----------------------------------------------------------------------------------

   CUMULATIVE VOLUMES               L**3   RATES FOR THIS TIME STEP           L**3/T
   ------------------                      ------------------------

                                     IN                                         IN
[...]
   ------------------                      ------------------------

                                     IN                                         IN
                                     --                                         --
        PRECIPITATION =        2.4013D+08          PRECIPITATION =                  
           STREAMFLOW =                               STREAMFLOW =                  
     GW BOUNDARY FLOW =          14852.16       GW BOUNDARY FLOW =              6.14


                                    OUT                                        OUT
                                    ---                                        ---
   EVAPOTRANSPIRATION =        1.4358D+08     EVAPOTRANSPIRATION =          27626.88
           STREAMFLOW =        1.2063D+08             STREAMFLOW =           6329.31
     GW BOUNDARY FLOW =          95698.29       GW BOUNDARY FLOW =             22.27

   INFLOWS - OUTFLOWS =       -2.4161D+07     INFLOWS - OUTFLOWS =         -33972.32
             --------                                   --------

 TOTAL STORAGE CHANGE =       -2.4145D+07         STORAGE CHANGE =         -33971.45
       --------------                             --------------
         LAND SURFACE =          31152.71           LAND SURFACE =         -27523.93
            SOIL ZONE =        -209373.24              SOIL ZONE =            -61.04
     UNSATURATED ZONE =         398954.95       UNSATURATED ZONE =          -1547.42
       SATURATED ZONE =       -2.4366D+07         SATURATED ZONE =          -4839.06

 OVERALL BUDGET ERROR =         -15343.96           BUDGET ERROR =             -0.88


  PERCENT DISCREPANCY =             -0.01    PERCENT DISCREPANCY =             -0.00



1
 SUMMARY VOLUMETRIC BUDGET FOR GSFLOW 
 DATE: 09 10 2000              CUMULATIVE TIME STEP:      10
 MODFLOW STRESS PERIOD    121     CURRENT TIME STEP:    3633     ITERATIONS:      13

 -----------------------------------------------------------------------------------

   CUMULATIVE VOLUMES               L**3   RATES FOR THIS TIME STEP           L**3/T
   ------------------                      ------------------------

                                     IN                                         IN
                                     --                                         --
        PRECIPITATION =        2.4013D+08          PRECIPITATION =                  
           STREAMFLOW =                               STREAMFLOW =                  
     GW BOUNDARY FLOW =          14895.15       GW BOUNDARY FLOW =              6.14


                                    OUT                                        OUT
                                    ---                                        ---
   EVAPOTRANSPIRATION =        1.4366D+08     EVAPOTRANSPIRATION =           8550.65
           STREAMFLOW =        1.2066D+08             STREAMFLOW =           4283.43
     GW BOUNDARY FLOW =          95852.80       GW BOUNDARY FLOW =             22.04

   INFLOWS - OUTFLOWS =       -2.4280D+07     INFLOWS - OUTFLOWS =         -12849.98
             --------                                   --------

 TOTAL STORAGE CHANGE =       -2.4264D+07         STORAGE CHANGE =         -12849.26
       --------------                             --------------
         LAND SURFACE =                             LAND SURFACE =                  
            SOIL ZONE =        -225301.48              SOIL ZONE =          -2349.11
     UNSATURATED ZONE =         387499.85       UNSATURATED ZONE =          -1618.63
       SATURATED ZONE =       -2.4427D+07         SATURATED ZONE =          -8881.52

 OVERALL BUDGET ERROR =         -15349.29           BUDGET ERROR =             -0.73


  PERCENT DISCREPANCY =             -0.01    PERCENT DISCREPANCY =             -0.01



1
 SUMMARY VOLUMETRIC BUDGET FOR GSFLOW 
 DATE: 09 17 2000              CUMULATIVE TIME STEP:      17
 MODFLOW STRESS PERIOD    121     CURRENT TIME STEP:    3640     ITERATIONS:       7

 -----------------------------------------------------------------------------------

   CUMULATIVE VOLUMES               L**3   RATES FOR THIS TIME STEP           L**3/T
   ------------------                      ------------------------

                                     IN                                         IN
                                     --                                         --
        PRECIPITATION =        2.4013D+08          PRECIPITATION =                  
           STREAMFLOW =                               STREAMFLOW =                  
     GW BOUNDARY FLOW =          14938.18       GW BOUNDARY FLOW =              6.15


                                    OUT                                        OUT
                                    ---                                        ---
   EVAPOTRANSPIRATION =        1.4374D+08     EVAPOTRANSPIRATION =           9836.31
           STREAMFLOW =        1.2069D+08             STREAMFLOW =           4005.07
     GW BOUNDARY FLOW =          96006.66       GW BOUNDARY FLOW =             21.99

   INFLOWS - OUTFLOWS =       -2.4380D+07     INFLOWS - OUTFLOWS =         -13857.22
             --------                                   --------

 TOTAL STORAGE CHANGE =       -2.4365D+07         STORAGE CHANGE =         -13855.78
       --------------                             --------------
         LAND SURFACE =                             LAND SURFACE =                  
            SOIL ZONE =        -243957.97              SOIL ZONE =          -2325.50
     UNSATURATED ZONE =         376148.63       UNSATURATED ZONE =          -1609.35
       SATURATED ZONE =       -2.4497D+07         SATURATED ZONE =          -9920.92

 OVERALL BUDGET ERROR =         -15351.78           BUDGET ERROR =             -1.45


  PERCENT DISCREPANCY =             -0.01    PERCENT DISCREPANCY =             -0.01



1
 SUMMARY VOLUMETRIC BUDGET FOR GSFLOW 
 DATE: 09 24 2000              CUMULATIVE TIME STEP:      24
 MODFLOW STRESS PERIOD    121     CURRENT TIME STEP:    3647     ITERATIONS:       5

 -----------------------------------------------------------------------------------

   CUMULATIVE VOLUMES               L**3   RATES FOR THIS TIME STEP           L**3/T
   ------------------                      ------------------------

                                     IN                                         IN
                                     --                                         --
        PRECIPITATION =        2.4013D+08          PRECIPITATION =                  
           STREAMFLOW =                               STREAMFLOW =                  
     GW BOUNDARY FLOW =          14981.26       GW BOUNDARY FLOW =              6.16


                                    OUT                                        OUT
                                    ---                                        ---
   EVAPOTRANSPIRATION =        1.4379D+08     EVAPOTRANSPIRATION =           5087.78
           STREAMFLOW =        1.2072D+08             STREAMFLOW =           5144.41
     GW BOUNDARY FLOW =          96160.92       GW BOUNDARY FLOW =             22.12

   INFLOWS - OUTFLOWS =       -2.4466D+07     INFLOWS - OUTFLOWS =         -10248.16
             --------                                   --------

 TOTAL STORAGE CHANGE =       -2.4451D+07         STORAGE CHANGE =         -10243.84
       --------------                             --------------
         LAND SURFACE =                             LAND SURFACE =                  
            SOIL ZONE =        -255782.78              SOIL ZONE =          -1020.15
     UNSATURATED ZONE =         365208.67       UNSATURATED ZONE =          -1489.78
       SATURATED ZONE =       -2.4560D+07         SATURATED ZONE =          -7733.91

 OVERALL BUDGET ERROR =         -15361.39           BUDGET ERROR =             -4.31


  PERCENT DISCREPANCY =             -0.01    PERCENT DISCREPANCY =             -0.04



1
 SUMMARY VOLUMETRIC BUDGET FOR GSFLOW 
 DATE: 10 01 2000              CUMULATIVE TIME STEP:       1
 MODFLOW STRESS PERIOD    122     CURRENT TIME STEP:    3654     ITERATIONS:       7

 -----------------------------------------------------------------------------------

   CUMULATIVE VOLUMES               L**3   RATES FOR THIS TIME STEP           L**3/T
   ------------------                      ------------------------

                                     IN                                         IN
                                     --                                         --
        PRECIPITATION =        2.4013D+08          PRECIPITATION =                  
           STREAMFLOW =                               STREAMFLOW =                  
     GW BOUNDARY FLOW =          15024.39       GW BOUNDARY FLOW =              6.16


                                    OUT                                        OUT
                                    ---                                        ---
   EVAPOTRANSPIRATION =        1.4385D+08     EVAPOTRANSPIRATION =           8229.74
           STREAMFLOW =        1.2075D+08             STREAMFLOW =           4321.92
     GW BOUNDARY FLOW =          96315.10       GW BOUNDARY FLOW =             22.02

   INFLOWS - OUTFLOWS =       -2.4555D+07     INFLOWS - OUTFLOWS =         -12567.51
             --------                                   --------

 TOTAL STORAGE CHANGE =       -2.4540D+07         STORAGE CHANGE =         -12567.83
       --------------                             --------------
         LAND SURFACE =                             LAND SURFACE =                  
            SOIL ZONE =        -267119.09              SOIL ZONE =          -1493.01
     UNSATURATED ZONE =         354269.59       UNSATURATED ZONE =          -1571.76
       SATURATED ZONE =       -2.4627D+07         SATURATED ZONE =          -9503.06

 OVERALL BUDGET ERROR =         -15365.05           BUDGET ERROR =              0.32


  PERCENT DISCREPANCY =             -0.01    PERCENT DISCREPANCY =              0.00



1
 SUMMARY VOLUMETRIC BUDGET FOR GSFLOW 
 DATE: 10 08 2000              CUMULATIVE TIME STEP:       8
 MODFLOW STRESS PERIOD    122     CURRENT TIME STEP:    3661     ITERATIONS:       3

 -----------------------------------------------------------------------------------

   CUMULATIVE VOLUMES               L**3   RATES FOR THIS TIME STEP           L**3/T
   ------------------                      ------------------------

                                     IN                                         IN
                                     --                                         --
        PRECIPITATION =        2.4013D+08          PRECIPITATION =                  
           STREAMFLOW =                               STREAMFLOW =                  
     GW BOUNDARY FLOW =          15067.57       GW BOUNDARY FLOW =              6.17


                                    OUT                                        OUT
                                    ---                                        ---
   EVAPOTRANSPIRATION =        1.4390D+08     EVAPOTRANSPIRATION =           6892.46
           STREAMFLOW =        1.2078D+08             STREAMFLOW =           4737.35
     GW BOUNDARY FLOW =          96469.48       GW BOUNDARY FLOW =             22.06

   INFLOWS - OUTFLOWS =       -2.4638D+07     INFLOWS - OUTFLOWS =         -11645.71
             --------                                   --------

 TOTAL STORAGE CHANGE =       -2.4623D+07         STORAGE CHANGE =         -11581.87
       --------------                             --------------
         LAND SURFACE =                             LAND SURFACE =                  
            SOIL ZONE =        -275569.02              SOIL ZONE =          -1099.60
     UNSATURATED ZONE =         343535.71       UNSATURATED ZONE =          -1547.50
       SATURATED ZONE =       -2.4691D+07         SATURATED ZONE =          -8934.77

 OVERALL BUDGET ERROR =         -15430.45           BUDGET ERROR =            -63.84


  PERCENT DISCREPANCY =             -0.01    PERCENT DISCREPANCY =             -0.55



1
 SUMMARY VOLUMETRIC BUDGET FOR GSFLOW 
 DATE: 10 15 2000              CUMULATIVE TIME STEP:      15
 MODFLOW STRESS PERIOD    122     CURRENT TIME STEP:    3668     ITERATIONS:       7

 -----------------------------------------------------------------------------------

   CUMULATIVE VOLUMES               L**3   RATES FOR THIS TIME STEP           L**3/T
   ------------------                      ------------------------

                                     IN                                         IN
                                     --                                         --
        PRECIPITATION =        2.4034D+08          PRECIPITATION =                  
           STREAMFLOW =                               STREAMFLOW =                  
     GW BOUNDARY FLOW =          15110.78       GW BOUNDARY FLOW =              6.18


                                    OUT                                        OUT
                                    ---                                        ---
   EVAPOTRANSPIRATION =        1.4398D+08     EVAPOTRANSPIRATION =           8032.25
           STREAMFLOW =        1.2083D+08             STREAMFLOW =           6067.16
     GW BOUNDARY FLOW =          96625.35       GW BOUNDARY FLOW =             22.23

   INFLOWS - OUTFLOWS =       -2.4548D+07     INFLOWS - OUTFLOWS =         -14115.46
             --------                                   --------

 TOTAL STORAGE CHANGE =       -2.4533D+07         STORAGE CHANGE =         -14114.89
       --------------                             --------------
         LAND SURFACE =            289.77           LAND SURFACE =          -3209.51
            SOIL ZONE =        -132950.18              SOIL ZONE =          -2049.28
     UNSATURATED ZONE =         332845.98       UNSATURATED ZONE =          -1624.84
       SATURATED ZONE =       -2.4733D+07         SATURATED ZONE =          -7231.26

 OVERALL BUDGET ERROR =         -15457.41           BUDGET ERROR =             -0.57


  PERCENT DISCREPANCY =             -0.01    PERCENT DISCREPANCY =             -0.00



1
 SUMMARY VOLUMETRIC BUDGET FOR GSFLOW 
 DATE: 10 22 2000              CUMULATIVE TIME STEP:      22
 MODFLOW STRESS PERIOD    122     CURRENT TIME STEP:    3675     ITERATIONS:       5

 -----------------------------------------------------------------------------------

   CUMULATIVE VOLUMES               L**3   RATES FOR THIS TIME STEP           L**3/T
   ------------------                      ------------------------

                                     IN                                         IN
                                     --                                         --
        PRECIPITATION =        2.4039D+08          PRECIPITATION =                  
           STREAMFLOW =                               STREAMFLOW =                  
     GW BOUNDARY FLOW =          15154.03       GW BOUNDARY FLOW =              6.18


                                    OUT                                        OUT
                                    ---                                        ---
   EVAPOTRANSPIRATION =        1.4403D+08     EVAPOTRANSPIRATION =           8033.33
           STREAMFLOW =        1.2087D+08             STREAMFLOW =           7102.40
     GW BOUNDARY FLOW =          96781.12       GW BOUNDARY FLOW =             22.36

   INFLOWS - OUTFLOWS =       -2.4589D+07     INFLOWS - OUTFLOWS =         -15151.91
             --------                                   --------

 TOTAL STORAGE CHANGE =       -2.4574D+07         STORAGE CHANGE =         -15147.34
       --------------                             --------------
         LAND SURFACE =          27624.54           LAND SURFACE =          -7992.89
            SOIL ZONE =        -140973.22              SOIL ZONE =              8.63
     UNSATURATED ZONE =         321868.47       UNSATURATED ZONE =          -1478.52
       SATURATED ZONE =       -2.4782D+07         SATURATED ZONE =          -5684.57

 OVERALL BUDGET ERROR =         -15484.63           BUDGET ERROR =             -4.57


  PERCENT DISCREPANCY =             -0.01    PERCENT DISCREPANCY =             -0.03



1
 SUMMARY VOLUMETRIC BUDGET FOR GSFLOW 
 DATE: 10 29 2000              CUMULATIVE TIME STEP:      29
 MODFLOW STRESS PERIOD    122     CURRENT TIME STEP:    3682     ITERATIONS:      23

 -----------------------------------------------------------------------------------

   CUMULATIVE VOLUMES               L**3   RATES FOR THIS TIME STEP           L**3/T
   ------------------                      ------------------------

                                     IN                                         IN
                                     --                                         --
        PRECIPITATION =        2.4111D+08          PRECIPITATION =          24578.20
           STREAMFLOW =                               STREAMFLOW =                  
     GW BOUNDARY FLOW =          15197.31       GW BOUNDARY FLOW =              6.18


                                    OUT                                        OUT
                                    ---                                        ---
   EVAPOTRANSPIRATION =        1.4406D+08     EVAPOTRANSPIRATION =           1113.59
           STREAMFLOW =        1.2092D+08             STREAMFLOW =           7015.13
     GW BOUNDARY FLOW =          96937.54       GW BOUNDARY FLOW =             22.38

   INFLOWS - OUTFLOWS =       -2.3951D+07     INFLOWS - OUTFLOWS =          16433.29
             --------                                   --------

 TOTAL STORAGE CHANGE =       -2.3936D+07         STORAGE CHANGE =          16433.22
       --------------                             --------------
         LAND SURFACE =         587219.82           LAND SURFACE =          11658.99
            SOIL ZONE =          -8421.76              SOIL ZONE =          12324.30
     UNSATURATED ZONE =         310911.54       UNSATURATED ZONE =          -1572.00
       SATURATED ZONE =       -2.4825D+07         SATURATED ZONE =          -5978.08

 OVERALL BUDGET ERROR =         -15507.51           BUDGET ERROR =              0.07


  PERCENT DISCREPANCY =             -0.01    PERCENT DISCREPANCY =              0.00



 Number of time steps:   3684;  Number of non-convergence:   2
 MF iterations:         25560;  SZ iterations:           23155
 Average MF iterations:  6.94;  Average SZ iterations:    6.29
 Maximum MF iterations:   500;  Maximum SZ iterations:      50

mxsziter reached: 10

MF iteration distribution:      0    0   95  395  656 1179  891  280  103   33
                                6    3    8    5    1    4    5    0    1    0
                                0    1    3    3    0    0    0    0    0    0
                                0    0    0    0    1    0    0    0    0    0
                                0    0    0    0    1    0    0    0    0    0
                                0    0    0    0    0    0    0    0    0    0
                                0    0    0    0    0    0    0    0    0    0
                                0    0    0    0    0    0    0    0    0   10

SZ computation distribution:    0    0   95  395  656 1179  891  280  103   33
                                6    3    8    5    1    4    5    0    1    0
                                0    1    3    3    0    0    0    0    0    0
                                0    0    0    0    1    0    0    0    0    0
                                0    0    0    0    1    0    0    0    0   10
                                0    0    0    0    0    0    0    0    0    0
                                0    0    0    0    0    0    0    0    0    0
                                0    0    0    0    0    0    0    0    0    0

