1
 SUMMARY VOLUMETRIC BUDGET FOR GSFLOW 
 DATE: 10 07 1990              CUMULATIVE TIME STEP:       7
 MODFLOW STRESS PERIOD      2     CURRENT TIME STEP:       7     ITERATIONS:       9

 -----------------------------------------------------------------------------------

   CUMULATIVE VOLUMES               L**3   RATES FOR THIS TIME STEP           L**3/T
   ------------------                      ------------------------

                                     IN                                         IN
                                     --                                         --
        PRECIPITATION =                            PRECIPITATION =                  
           STREAMFLOW =                               STREAMFLOW =                  
     GW BOUNDARY FLOW =                         GW BOUNDARY FLOW =                  


                                    OUT                                        OUT
                                    ---                                        ---
   EVAPOTRANSPIRATION =         397599.09     EVAPOTRANSPIRATION =          12333.35
           STREAMFLOW =          57562.68             STREAMFLOW =           9072.50
     GW BOUNDARY FLOW =            253.94       GW BOUNDARY FLOW =             36.37

   INFLOWS - OUTFLOWS =        -455415.71     INFLOWS - OUTFLOWS =         -21442.22
             --------                                   --------

 TOTAL STORAGE CHANGE =        -454626.75         STORAGE CHANGE =         -21381.59
       --------------                             --------------
         LAND SURFACE =                             LAND SURFACE =                  
            SOIL ZONE =        -368053.70              SOIL ZONE =          -7543.42
     UNSATURATED ZONE =        -239802.47       UNSATURATED ZONE =         -31881.62
       SATURATED ZONE =         153229.42         SATURATED ZONE =          18043.45

 OVERALL BUDGET ERROR =           -788.95           BUDGET ERROR =            -60.63


  PERCENT DISCREPANCY =             -0.17    PERCENT DISCREPANCY =             -0.28



1
 SUMMARY VOLUMETRIC BUDGET FOR GSFLOW 
 DATE: 10 14 1990              CUMULATIVE TIME STEP:      14
 MODFLOW STRESS PERIOD      2     CURRENT TIME STEP:      14     ITERATIONS:       6

 -----------------------------------------------------------------------------------

   CUMULATIVE VOLUMES               L**3   RATES FOR THIS TIME STEP           L**3/T
   ------------------                      ------------------------

                                     IN                                         IN
                                     --                                         --
        PRECIPITATION =                            PRECIPITATION =                  
           STREAMFLOW =                               STREAMFLOW =                  
     GW BOUNDARY FLOW =                         GW BOUNDARY FLOW =                  


                                    OUT                                        OUT
                                    ---                                        ---
   EVAPOTRANSPIRATION =         720567.98     EVAPOTRANSPIRATION =          58658.13
           STREAMFLOW =         119498.88             STREAMFLOW =           8967.65
     GW BOUNDARY FLOW =            508.52       GW BOUNDARY FLOW =             36.39

   INFLOWS - OUTFLOWS =        -840575.37     INFLOWS - OUTFLOWS =         -67662.16
             --------                                   --------

 TOTAL STORAGE CHANGE =        -839342.02         STORAGE CHANGE =         -67608.84
       --------------                             --------------
         LAND SURFACE =                             LAND SURFACE =                  
            SOIL ZONE =        -557571.61              SOIL ZONE =         -33991.16
     UNSATURATED ZONE =        -531311.88       UNSATURATED ZONE =         -44999.86
       SATURATED ZONE =         249541.46         SATURATED ZONE =          11382.19

 OVERALL BUDGET ERROR =          -1233.35           BUDGET ERROR =            -53.33


  PERCENT DISCREPANCY =             -0.15    PERCENT DISCREPANCY =             -0.08



1
 SUMMARY VOLUMETRIC BUDGET FOR GSFLOW 
 DATE: 10 21 1990              CUMULATIVE TIME STEP:      21
 MODFLOW STRESS PERIOD      2     CURRENT TIME STEP:      21     ITERATIONS:       6

 -----------------------------------------------------------------------------------

   CUMULATIVE VOLUMES               L**3   RATES FOR THIS TIME STEP           L**3/T
   ------------------                      ------------------------

                                     IN                                         IN
                                     --                                         --
        PRECIPITATION =         188432.87          PRECIPITATION =                  
           STREAMFLOW =                               STREAMFLOW =                  
     GW BOUNDARY FLOW =                         GW BOUNDARY FLOW =                  


                                    OUT                                        OUT
                                    ---                                        ---
   EVAPOTRANSPIRATION =         940839.71     EVAPOTRANSPIRATION =          41287.50
           STREAMFLOW =         187858.20             STREAMFLOW =          10330.78
     GW BOUNDARY FLOW =            763.74       GW BOUNDARY FLOW =             36.50

   INFLOWS - OUTFLOWS =        -941028.78     INFLOWS - OUTFLOWS =         -51654.77
             --------                                   --------

 TOTAL STORAGE CHANGE =        -939542.96         STORAGE CHANGE =         -51630.44
       --------------                             --------------
         LAND SURFACE =            440.00           LAND SURFACE =         -25669.46
            SOIL ZONE =        -515467.88              SOIL ZONE =         -13933.44
     UNSATURATED ZONE =        -756229.77       UNSATURATED ZONE =         -24486.43
       SATURATED ZONE =         331714.68         SATURATED ZONE =          12458.89

 OVERALL BUDGET ERROR =          -1485.82           BUDGET ERROR =            -24.33


  PERCENT DISCREPANCY =             -0.13    PERCENT DISCREPANCY =             -0.05



1
 SUMMARY VOLUMETRIC BUDGET FOR GSFLOW 
 DATE: 10 28 1990              CUMULATIVE TIME STEP:      28
 MODFLOW STRESS PERIOD      2     CURRENT TIME STEP:      28     ITERATIONS:       6

 -----------------------------------------------------------------------------------

   CUMULATIVE VOLUMES               L**3   RATES FOR THIS TIME STEP           L**3/T
   ------------------                      ------------------------

                                     IN                                         IN
                                     --                                         --
        PRECIPITATION =         188432.87          PRECIPITATION =                  
           STREAMFLOW =                               STREAMFLOW =                  
     GW BOUNDARY FLOW =                         GW BOUNDARY FLOW =                  


                                    OUT                                        OUT
                                    ---                                        ---
   EVAPOTRANSPIRATION =        1215123.18     EVAPOTRANSPIRATION =          30261.96
           STREAMFLOW =         255480.54             STREAMFLOW =           9820.80
     GW BOUNDARY FLOW =           1018.47       GW BOUNDARY FLOW =             36.36

   INFLOWS - OUTFLOWS =       -1283189.33     INFLOWS - OUTFLOWS =         -40119.12
             --------                                   --------

 TOTAL STORAGE CHANGE =       -1281485.68         STORAGE CHANGE =         -40091.99
       --------------                             --------------
         LAND SURFACE =                             LAND SURFACE =                  
            SOIL ZONE =        -688853.01              SOIL ZONE =         -20154.78
     UNSATURATED ZONE =        -989875.73       UNSATURATED ZONE =         -28999.36
       SATURATED ZONE =         397243.05         SATURATED ZONE =           9062.15

 OVERALL BUDGET ERROR =          -1703.65           BUDGET ERROR =            -27.13


  PERCENT DISCREPANCY =             -0.12    PERCENT DISCREPANCY =             -0.07



1
 SUMMARY VOLUMETRIC BUDGET FOR GSFLOW 
 DATE: 11 04 1990              CUMULATIVE TIME STEP:       4
 MODFLOW STRESS PERIOD      3     CURRENT TIME STEP:      35     ITERATIONS:       6

 -----------------------------------------------------------------------------------

   CUMULATIVE VOLUMES               L**3   RATES FOR THIS TIME STEP           L**3/T
   ------------------                      ------------------------

                                     IN                                         IN
                                     --                                         --
        PRECIPITATION =         703113.06          PRECIPITATION =                  
           STREAMFLOW =                               STREAMFLOW =                  
     GW BOUNDARY FLOW =                         GW BOUNDARY FLOW =                  


                                    OUT                                        OUT
                                    ---                                        ---
   EVAPOTRANSPIRATION =        1312703.17     EVAPOTRANSPIRATION =          26612.12
           STREAMFLOW =         329111.19             STREAMFLOW =          10796.92
     GW BOUNDARY FLOW =           1273.04       GW BOUNDARY FLOW =             36.35

   INFLOWS - OUTFLOWS =        -939974.34     INFLOWS - OUTFLOWS =         -37445.38
             --------                                   --------

 TOTAL STORAGE CHANGE =        -938117.98         STORAGE CHANGE =         -37426.74
       --------------                             --------------
         LAND SURFACE =          14687.55           LAND SURFACE =         -25087.74
            SOIL ZONE =        -270766.53              SOIL ZONE =          -1418.90
     UNSATURATED ZONE =       -1151623.30       UNSATURATED ZONE =         -21496.31
       SATURATED ZONE =         469584.29         SATURATED ZONE =          10576.21

 OVERALL BUDGET ERROR =          -1856.37           BUDGET ERROR =            -18.64


  PERCENT DISCREPANCY =             -0.11    PERCENT DISCREPANCY =             -0.05



1
 SUMMARY VOLUMETRIC BUDGET FOR GSFLOW 
 DATE: 11 11 1990              CUMULATIVE TIME STEP:      11
 MODFLOW STRESS PERIOD      3     CURRENT TIME STEP:      42     ITERATIONS:       6

 -----------------------------------------------------------------------------------

   CUMULATIVE VOLUMES               L**3   RATES FOR THIS TIME STEP           L**3/T
   ------------------                      ------------------------

                                     IN                                         IN
                                     --                                         --
        PRECIPITATION =         703113.06          PRECIPITATION =                  
           STREAMFLOW =                               STREAMFLOW =                  
     GW BOUNDARY FLOW =                         GW BOUNDARY FLOW =                  


                                    OUT                                        OUT
                                    ---                                        ---
   EVAPOTRANSPIRATION =        1449868.68     EVAPOTRANSPIRATION =          27321.97
           STREAMFLOW =         404463.17             STREAMFLOW =          10602.46
     GW BOUNDARY FLOW =           1526.87       GW BOUNDARY FLOW =             36.19

   INFLOWS - OUTFLOWS =       -1152745.65     INFLOWS - OUTFLOWS =         -37960.63
             --------                                   --------

 TOTAL STORAGE CHANGE =       -1150759.28         STORAGE CHANGE =         -37941.10
       --------------                             --------------
         LAND SURFACE =              7.32           LAND SURFACE =            -44.87
            SOIL ZONE =        -387937.38              SOIL ZONE =         -25139.66
     UNSATURATED ZONE =       -1299717.13       UNSATURATED ZONE =         -21169.42
       SATURATED ZONE =         536887.91         SATURATED ZONE =           8412.85

 OVERALL BUDGET ERROR =          -1986.38           BUDGET ERROR =            -19.53


  PERCENT DISCREPANCY =             -0.11    PERCENT DISCREPANCY =             -0.05



1
 SUMMARY VOLUMETRIC BUDGET FOR GSFLOW 
 DATE: 11 18 1990              CUMULATIVE TIME STEP:      18
 MODFLOW STRESS PERIOD      3     CURRENT TIME STEP:      49     ITERATIONS:       6

 -----------------------------------------------------------------------------------

   CUMULATIVE VOLUMES               L**3   RATES FOR THIS TIME STEP           L**3/T
   ------------------                      ------------------------

                                     IN                                         IN
                                     --                                         --
        PRECIPITATION =         747883.35          PRECIPITATION =                  
           STREAMFLOW =                               STREAMFLOW =                  
     GW BOUNDARY FLOW =                         GW BOUNDARY FLOW =                  


                                    OUT                                        OUT
                                    ---                                        ---
   EVAPOTRANSPIRATION =        1567304.41     EVAPOTRANSPIRATION =           5910.04
           STREAMFLOW =         479834.52             STREAMFLOW =          10927.79
     GW BOUNDARY FLOW =           1779.88       GW BOUNDARY FLOW =             36.11

   INFLOWS - OUTFLOWS =       -1301035.46     INFLOWS - OUTFLOWS =         -16873.94
             --------                                   --------

 TOTAL STORAGE CHANGE =       -1298919.00         STORAGE CHANGE =         -16855.88
       --------------                             --------------
         LAND SURFACE =           2991.09           LAND SURFACE =          -2505.72
            SOIL ZONE =        -451853.35              SOIL ZONE =          -2483.22
     UNSATURATED ZONE =       -1444176.17       UNSATURATED ZONE =         -20006.44
       SATURATED ZONE =         594119.43         SATURATED ZONE =           8139.50

 OVERALL BUDGET ERROR =          -2116.46           BUDGET ERROR =            -18.07


  PERCENT DISCREPANCY =             -0.10    PERCENT DISCREPANCY =             -0.11



1
 SUMMARY VOLUMETRIC BUDGET FOR GSFLOW 
 DATE: 11 25 1990              CUMULATIVE TIME STEP:      25
 MODFLOW STRESS PERIOD      3     CURRENT TIME STEP:      56     ITERATIONS:       6

 -----------------------------------------------------------------------------------

   CUMULATIVE VOLUMES               L**3   RATES FOR THIS TIME STEP           L**3/T
   ------------------                      ------------------------

                                     IN                                         IN
                                     --                                         --
        PRECIPITATION =        1009043.38          PRECIPITATION =         186542.88
           STREAMFLOW =                               STREAMFLOW =                  
     GW BOUNDARY FLOW =                         GW BOUNDARY FLOW =                  


                                    OUT                                        OUT
                                    ---                                        ---
   EVAPOTRANSPIRATION =        1632387.39     EVAPOTRANSPIRATION =           6345.73
           STREAMFLOW =         557561.16             STREAMFLOW =          11129.26
     GW BOUNDARY FLOW =           2032.49       GW BOUNDARY FLOW =             36.06

   INFLOWS - OUTFLOWS =       -1182937.66     INFLOWS - OUTFLOWS =         169031.83
             --------                                   --------

 TOTAL STORAGE CHANGE =       -1180707.91         STORAGE CHANGE =         169045.43
       --------------                             --------------
         LAND SURFACE =          34155.95           LAND SURFACE =          17542.40
            SOIL ZONE =        -284885.38              SOIL ZONE =         163007.13
     UNSATURATED ZONE =       -1580076.40       UNSATURATED ZONE =         -19074.88
       SATURATED ZONE =         650097.92         SATURATED ZONE =           7570.78

 OVERALL BUDGET ERROR =          -2229.75           BUDGET ERROR =            -13.60


  PERCENT DISCREPANCY =             -0.10    PERCENT DISCREPANCY =             -0.01



1
 SUMMARY VOLUMETRIC BUDGET FOR GSFLOW 
 DATE: 12 02 1990              CUMULATIVE TIME STEP:       2
 MODFLOW STRESS PERIOD      4     CURRENT TIME STEP:      63     ITERATIONS:       6

 -----------------------------------------------------------------------------------

   CUMULATIVE VOLUMES               L**3   RATES FOR THIS TIME STEP           L**3/T
   ------------------                      ------------------------

                                     IN                                         IN
                                     --                                         --
        PRECIPITATION =        1449284.55          PRECIPITATION =                  
           STREAMFLOW =                               STREAMFLOW =                  
     GW BOUNDARY FLOW =                         GW BOUNDARY FLOW =                  


                                    OUT                                        OUT
                                    ---                                        ---
   EVAPOTRANSPIRATION =        1638928.07     EVAPOTRANSPIRATION =            234.74
           STREAMFLOW =         636392.67             STREAMFLOW =          11417.03
     GW BOUNDARY FLOW =           2284.60       GW BOUNDARY FLOW =             35.98

   INFLOWS - OUTFLOWS =        -828320.79     INFLOWS - OUTFLOWS =         -11687.75
             --------                                   --------

 TOTAL STORAGE CHANGE =        -825999.28         STORAGE CHANGE =         -11674.67
       --------------                             --------------
         LAND SURFACE =         433511.40           LAND SURFACE =           -336.10
            SOIL ZONE =        -249462.69              SOIL ZONE =            250.37
     UNSATURATED ZONE =       -1710230.08       UNSATURATED ZONE =         -18249.62
       SATURATED ZONE =         700182.10         SATURATED ZONE =           6660.67

 OVERALL BUDGET ERROR =          -2321.51           BUDGET ERROR =            -13.07


  PERCENT DISCREPANCY =             -0.10    PERCENT DISCREPANCY =             -0.11



1
 SUMMARY VOLUMETRIC BUDGET FOR GSFLOW 
 DATE: 12 09 1990              CUMULATIVE TIME STEP:       9
 MODFLOW STRESS PERIOD      4     CURRENT TIME STEP:      70     ITERATIONS:       6

 -----------------------------------------------------------------------------------

   CUMULATIVE VOLUMES               L**3   RATES FOR THIS TIME STEP           L**3/T
   ------------------                      ------------------------

                                     IN                                         IN
                                     --                                         --
        PRECIPITATION =        1449284.55          PRECIPITATION =                  
           STREAMFLOW =                               STREAMFLOW =                  
     GW BOUNDARY FLOW =                         GW BOUNDARY FLOW =                  


                                    OUT                                        OUT
                                    ---                                        ---
   EVAPOTRANSPIRATION =        1729345.62     EVAPOTRANSPIRATION =          20358.91
           STREAMFLOW =         716993.14             STREAMFLOW =          11564.20
     GW BOUNDARY FLOW =           2536.10       GW BOUNDARY FLOW =             35.89

   INFLOWS - OUTFLOWS =        -999590.31     INFLOWS - OUTFLOWS =         -31958.99
             --------                                   --------

 TOTAL STORAGE CHANGE =        -997177.13         STORAGE CHANGE =         -31946.86
       --------------                             --------------
         LAND SURFACE =          42683.34           LAND SURFACE =         -36968.66
            SOIL ZONE =          52720.90              SOIL ZONE =          16957.59
     UNSATURATED ZONE =       -1835425.00       UNSATURATED ZONE =         -17639.54
       SATURATED ZONE =         742843.63         SATURATED ZONE =           5703.76

 OVERALL BUDGET ERROR =          -2413.18           BUDGET ERROR =            -12.13


  PERCENT DISCREPANCY =             -0.10    PERCENT DISCREPANCY =             -0.04



1
 SUMMARY VOLUMETRIC BUDGET FOR GSFLOW 
 DATE: 12 16 1990              CUMULATIVE TIME STEP:      16
 MODFLOW STRESS PERIOD      4     CURRENT TIME STEP:      77     ITERATIONS:       5

 -----------------------------------------------------------------------------------

   CUMULATIVE VOLUMES               L**3   RATES FOR THIS TIME STEP           L**3/T
   ------------------                      ------------------------

                                     IN                                         IN
                                     --                                         --
        PRECIPITATION =        1804962.84          PRECIPITATION =                  
           STREAMFLOW =                               STREAMFLOW =                  
     GW BOUNDARY FLOW =                         GW BOUNDARY FLOW =                  


                                    OUT                                        OUT
                                    ---                                        ---
   EVAPOTRANSPIRATION =        1769618.18     EVAPOTRANSPIRATION =                  
           STREAMFLOW =         798383.81             STREAMFLOW =          11671.99
     GW BOUNDARY FLOW =           2786.95       GW BOUNDARY FLOW =             35.80

   INFLOWS - OUTFLOWS =        -765826.10     INFLOWS - OUTFLOWS =         -11707.78
             --------                                   --------

 TOTAL STORAGE CHANGE =        -763364.64         STORAGE CHANGE =         -11701.37
       --------------                             --------------
         LAND SURFACE =         158559.69           LAND SURFACE =                  
            SOIL ZONE =         253930.35              SOIL ZONE =            170.27
     UNSATURATED ZONE =       -1955570.92       UNSATURATED ZONE =         -16808.97
       SATURATED ZONE =         779716.24         SATURATED ZONE =           4937.33

 OVERALL BUDGET ERROR =          -2461.46           BUDGET ERROR =             -6.41


  PERCENT DISCREPANCY =             -0.10    PERCENT DISCREPANCY =             -0.05



1
 SUMMARY VOLUMETRIC BUDGET FOR GSFLOW 
 DATE: 12 23 1990              CUMULATIVE TIME STEP:      23
 MODFLOW STRESS PERIOD      4     CURRENT TIME STEP:      84     ITERATIONS:       5

 -----------------------------------------------------------------------------------

   CUMULATIVE VOLUMES               L**3   RATES FOR THIS TIME STEP           L**3/T
   ------------------                      ------------------------

                                     IN                                         IN
                                     --                                         --
        PRECIPITATION =        2276236.55          PRECIPITATION =                  
           STREAMFLOW =                               STREAMFLOW =                  
     GW BOUNDARY FLOW =                         GW BOUNDARY FLOW =                  


                                    OUT                                        OUT
                                    ---                                        ---
   EVAPOTRANSPIRATION =        1770677.15     EVAPOTRANSPIRATION =                  
           STREAMFLOW =         880520.20             STREAMFLOW =          11774.14
     GW BOUNDARY FLOW =           3037.21       GW BOUNDARY FLOW =             35.72

   INFLOWS - OUTFLOWS =        -377998.01     INFLOWS - OUTFLOWS =         -11809.85
             --------                                   --------

 TOTAL STORAGE CHANGE =        -375484.71         STORAGE CHANGE =         -11801.85
       --------------                             --------------
         LAND SURFACE =         628777.68           LAND SURFACE =                  
            SOIL ZONE =         255176.05              SOIL ZONE =            182.72
     UNSATURATED ZONE =       -2070741.39       UNSATURATED ZONE =         -16189.72
       SATURATED ZONE =         811302.95         SATURATED ZONE =           4205.15

 OVERALL BUDGET ERROR =          -2513.30           BUDGET ERROR =             -8.01


  PERCENT DISCREPANCY =             -0.09    PERCENT DISCREPANCY =             -0.07



1
 SUMMARY VOLUMETRIC BUDGET FOR GSFLOW 
 DATE: 12 30 1990              CUMULATIVE TIME STEP:      30
 MODFLOW STRESS PERIOD      4     CURRENT TIME STEP:      91     ITERATIONS:       5

 -----------------------------------------------------------------------------------

   CUMULATIVE VOLUMES               L**3   RATES FOR THIS TIME STEP           L**3/T
   ------------------                      ------------------------

                                     IN                                         IN
                                     --                                         --
        PRECIPITATION =        2276236.55          PRECIPITATION =                  
           STREAMFLOW =                               STREAMFLOW =                  
     GW BOUNDARY FLOW =              0.03       GW BOUNDARY FLOW =              0.02


                                    OUT                                        OUT
                                    ---                                        ---
   EVAPOTRANSPIRATION =        1771244.75     EVAPOTRANSPIRATION =                  
           STREAMFLOW =         963229.89             STREAMFLOW =          11842.39
     GW BOUNDARY FLOW =           3287.70       GW BOUNDARY FLOW =             35.78

   INFLOWS - OUTFLOWS =        -461525.77     INFLOWS - OUTFLOWS =         -11878.15
             --------                                   --------

 TOTAL STORAGE CHANGE =        -458951.97         STORAGE CHANGE =         -11868.95
       --------------                             --------------
         LAND SURFACE =         628210.29           LAND SURFACE =                  
            SOIL ZONE =         256483.77              SOIL ZONE =            190.52
     UNSATURATED ZONE =       -2181369.03       UNSATURATED ZONE =         -15533.84
       SATURATED ZONE =         837723.00         SATURATED ZONE =           3474.38

 OVERALL BUDGET ERROR =          -2573.80           BUDGET ERROR =             -9.21


  PERCENT DISCREPANCY =             -0.09    PERCENT DISCREPANCY =             -0.08



1
 SUMMARY VOLUMETRIC BUDGET FOR GSFLOW 
 DATE: 01 06 1991              CUMULATIVE TIME STEP:       6
 MODFLOW STRESS PERIOD      5     CURRENT TIME STEP:      98     ITERATIONS:      10

 -----------------------------------------------------------------------------------

   CUMULATIVE VOLUMES               L**3   RATES FOR THIS TIME STEP           L**3/T
   ------------------                      ------------------------

                                     IN                                         IN
                                     --                                         --
        PRECIPITATION =        2276236.55          PRECIPITATION =                  
           STREAMFLOW =                               STREAMFLOW =                  
     GW BOUNDARY FLOW =              0.57       GW BOUNDARY FLOW =              0.12


                                    OUT                                        OUT
                                    ---                                        ---
   EVAPOTRANSPIRATION =        1799279.53     EVAPOTRANSPIRATION =           3338.07
           STREAMFLOW =        1045694.78             STREAMFLOW =          11204.31
     GW BOUNDARY FLOW =           3538.19       GW BOUNDARY FLOW =             35.77

   INFLOWS - OUTFLOWS =        -572275.39     INFLOWS - OUTFLOWS =         -14578.03
             --------                                   --------

 TOTAL STORAGE CHANGE =        -569635.03         STORAGE CHANGE =         -14569.75
       --------------                             --------------
         LAND SURFACE =         485287.83           LAND SURFACE =          -8494.60
            SOIL ZONE =         372869.27              SOIL ZONE =           5367.15
     UNSATURATED ZONE =       -2287917.36       UNSATURATED ZONE =         -14980.08
       SATURATED ZONE =         860125.23         SATURATED ZONE =           3537.79

 OVERALL BUDGET ERROR =          -2640.36           BUDGET ERROR =             -8.28


  PERCENT DISCREPANCY =             -0.09    PERCENT DISCREPANCY =             -0.06



1
 SUMMARY VOLUMETRIC BUDGET FOR GSFLOW 
 DATE: 01 13 1991              CUMULATIVE TIME STEP:      13
 MODFLOW STRESS PERIOD      5     CURRENT TIME STEP:     105     ITERATIONS:       6

 -----------------------------------------------------------------------------------

   CUMULATIVE VOLUMES               L**3   RATES FOR THIS TIME STEP           L**3/T
   ------------------                      ------------------------

                                     IN                                         IN
                                     --                                         --
        PRECIPITATION =        2596386.94          PRECIPITATION =          10327.43
           STREAMFLOW =                               STREAMFLOW =                  
     GW BOUNDARY FLOW =              1.76       GW BOUNDARY FLOW =              0.21


                                    OUT                                        OUT
                                    ---                                        ---
   EVAPOTRANSPIRATION =        1869932.73     EVAPOTRANSPIRATION =          20506.05
           STREAMFLOW =        1128214.16             STREAMFLOW =          11777.03
     GW BOUNDARY FLOW =           3788.64       GW BOUNDARY FLOW =             35.76

   INFLOWS - OUTFLOWS =        -405546.82     INFLOWS - OUTFLOWS =         -21991.20
             --------                                   --------

 TOTAL STORAGE CHANGE =        -402840.93         STORAGE CHANGE =         -21981.68
       --------------                             --------------
         LAND SURFACE =         415957.94           LAND SURFACE =        -130998.07
            SOIL ZONE =         696733.24              SOIL ZONE =         123225.69
     UNSATURATED ZONE =       -2392699.14       UNSATURATED ZONE =         -15868.52
       SATURATED ZONE =         877167.04         SATURATED ZONE =           1659.21

 OVERALL BUDGET ERROR =          -2705.90           BUDGET ERROR =             -9.52


  PERCENT DISCREPANCY =             -0.09    PERCENT DISCREPANCY =             -0.03



1
 SUMMARY VOLUMETRIC BUDGET FOR GSFLOW 
 DATE: 01 20 1991              CUMULATIVE TIME STEP:      20
 MODFLOW STRESS PERIOD      5     CURRENT TIME STEP:     112     ITERATIONS:       7

 -----------------------------------------------------------------------------------

   CUMULATIVE VOLUMES               L**3   RATES FOR THIS TIME STEP           L**3/T
   ------------------                      ------------------------

                                     IN                                         IN
                                     --                                         --
        PRECIPITATION =        2596386.94          PRECIPITATION =                  
           STREAMFLOW =                               STREAMFLOW =                  
     GW BOUNDARY FLOW =              3.57       GW BOUNDARY FLOW =              0.30


                                    OUT                                        OUT
                                    ---                                        ---
   EVAPOTRANSPIRATION =        1950158.67     EVAPOTRANSPIRATION =           2680.70
           STREAMFLOW =        1210674.88             STREAMFLOW =          11834.66
     GW BOUNDARY FLOW =           4039.09       GW BOUNDARY FLOW =             35.78

   INFLOWS - OUTFLOWS =        -568482.12     INFLOWS - OUTFLOWS =         -14550.84
             --------                                   --------

 TOTAL STORAGE CHANGE =        -565709.97         STORAGE CHANGE =         -14542.82
       --------------                             --------------
         LAND SURFACE =         248942.00           LAND SURFACE =           -383.91
            SOIL ZONE =         787302.63              SOIL ZONE =          -1991.82
     UNSATURATED ZONE =       -2492809.45       UNSATURATED ZONE =         -13887.49
       SATURATED ZONE =         890854.85         SATURATED ZONE =           1720.39

 OVERALL BUDGET ERROR =          -2772.16           BUDGET ERROR =             -8.02


  PERCENT DISCREPANCY =             -0.09    PERCENT DISCREPANCY =             -0.06



1
 SUMMARY VOLUMETRIC BUDGET FOR GSFLOW 
 DATE: 01 27 1991              CUMULATIVE TIME STEP:      27
 MODFLOW STRESS PERIOD      5     CURRENT TIME STEP:     119     ITERATIONS:       5

 -----------------------------------------------------------------------------------

   CUMULATIVE VOLUMES               L**3   RATES FOR THIS TIME STEP           L**3/T
   ------------------                      ------------------------

                                     IN                                         IN
                                     --                                         --
        PRECIPITATION =        2596386.94          PRECIPITATION =                  
           STREAMFLOW =                               STREAMFLOW =                  
     GW BOUNDARY FLOW =              5.99       GW BOUNDARY FLOW =              0.38


                                    OUT                                        OUT
                                    ---                                        ---
   EVAPOTRANSPIRATION =        1978085.24     EVAPOTRANSPIRATION =           1885.26
           STREAMFLOW =        1294398.24             STREAMFLOW =          12001.23
     GW BOUNDARY FLOW =           4289.53       GW BOUNDARY FLOW =             35.78

   INFLOWS - OUTFLOWS =        -680380.08     INFLOWS - OUTFLOWS =         -13921.89
             --------                                   --------

 TOTAL STORAGE CHANGE =        -677520.87         STORAGE CHANGE =         -13908.40
       --------------                             --------------
         LAND SURFACE =         216195.30           LAND SURFACE =           -283.34
            SOIL ZONE =         794797.54              SOIL ZONE =          -1344.56
     UNSATURATED ZONE =       -2588174.70       UNSATURATED ZONE =         -13290.48
       SATURATED ZONE =         899660.99         SATURATED ZONE =           1009.98

 OVERALL BUDGET ERROR =          -2859.21           BUDGET ERROR =            -13.48


  PERCENT DISCREPANCY =             -0.09    PERCENT DISCREPANCY =             -0.10



1
 SUMMARY VOLUMETRIC BUDGET FOR GSFLOW 
 DATE: 02 03 1991              CUMULATIVE TIME STEP:       3
 MODFLOW STRESS PERIOD      6     CURRENT TIME STEP:     126     ITERATIONS:       5

 -----------------------------------------------------------------------------------

   CUMULATIVE VOLUMES               L**3   RATES FOR THIS TIME STEP           L**3/T
   ------------------                      ------------------------

                                     IN                                         IN
                                     --                                         --
        PRECIPITATION =        3228422.31          PRECIPITATION =          30459.53
           STREAMFLOW =                               STREAMFLOW =                  
     GW BOUNDARY FLOW =              8.98       GW BOUNDARY FLOW =              0.46


                                    OUT                                        OUT
                                    ---                                        ---
   EVAPOTRANSPIRATION =        2090841.15     EVAPOTRANSPIRATION =          22246.81
           STREAMFLOW =        1378599.76             STREAMFLOW =          12071.22
     GW BOUNDARY FLOW =           4539.93       GW BOUNDARY FLOW =             35.77

   INFLOWS - OUTFLOWS =        -245549.56     INFLOWS - OUTFLOWS =          -3893.80
             --------                                   --------

 TOTAL STORAGE CHANGE =        -242596.44         STORAGE CHANGE =          -3880.29
       --------------                             --------------
         LAND SURFACE =          98449.12           LAND SURFACE =         -20224.98
            SOIL ZONE =        1435046.95              SOIL ZONE =          28157.33
     UNSATURATED ZONE =       -2680318.63       UNSATURATED ZONE =         -12272.67
       SATURATED ZONE =         904226.13         SATURATED ZONE =            460.02

 OVERALL BUDGET ERROR =          -2953.12           BUDGET ERROR =            -13.51


  PERCENT DISCREPANCY =             -0.09    PERCENT DISCREPANCY =             -0.04



1
 SUMMARY VOLUMETRIC BUDGET FOR GSFLOW 
 DATE: 02 10 1991              CUMULATIVE TIME STEP:      10
 MODFLOW STRESS PERIOD      6     CURRENT TIME STEP:     133     ITERATIONS:       5

 -----------------------------------------------------------------------------------

   CUMULATIVE VOLUMES               L**3   RATES FOR THIS TIME STEP           L**3/T
   ------------------                      ------------------------

                                     IN                                         IN
                                     --                                         --
        PRECIPITATION =        3510173.01          PRECIPITATION =                  
           STREAMFLOW =                               STREAMFLOW =                  
     GW BOUNDARY FLOW =             12.51       GW BOUNDARY FLOW =              0.54


                                    OUT                                        OUT
                                    ---                                        ---
   EVAPOTRANSPIRATION =        2261800.62     EVAPOTRANSPIRATION =          26198.40
           STREAMFLOW =        1463522.99             STREAMFLOW =          12154.83
     GW BOUNDARY FLOW =           4790.11       GW BOUNDARY FLOW =             35.70

   INFLOWS - OUTFLOWS =        -219928.20     INFLOWS - OUTFLOWS =         -38388.40
             --------                                   --------

 TOTAL STORAGE CHANGE =        -216874.01         STORAGE CHANGE =         -38373.47
       --------------                             --------------
         LAND SURFACE =          24867.61           LAND SURFACE =          -3553.94
            SOIL ZONE =        1609890.33              SOIL ZONE =         -23973.47
     UNSATURATED ZONE =       -2757330.87       UNSATURATED ZONE =         -10814.68
       SATURATED ZONE =         905698.92         SATURATED ZONE =            -31.37

 OVERALL BUDGET ERROR =          -3054.19           BUDGET ERROR =            -14.93


  PERCENT DISCREPANCY =             -0.08    PERCENT DISCREPANCY =             -0.04



1
 SUMMARY VOLUMETRIC BUDGET FOR GSFLOW 
 DATE: 02 17 1991              CUMULATIVE TIME STEP:      17
 MODFLOW STRESS PERIOD      6     CURRENT TIME STEP:     140     ITERATIONS:       5

 -----------------------------------------------------------------------------------

   CUMULATIVE VOLUMES               L**3   RATES FOR THIS TIME STEP           L**3/T
   ------------------                      ------------------------

                                     IN                                         IN
                                     --                                         --
        PRECIPITATION =        3510173.01          PRECIPITATION =                  
           STREAMFLOW =                               STREAMFLOW =                  
     GW BOUNDARY FLOW =             16.55       GW BOUNDARY FLOW =              0.61


                                    OUT                                        OUT
                                    ---                                        ---
   EVAPOTRANSPIRATION =        2508821.04     EVAPOTRANSPIRATION =          24029.70
           STREAMFLOW =        1548705.44             STREAMFLOW =          12177.05
     GW BOUNDARY FLOW =           5039.68       GW BOUNDARY FLOW =             35.61

   INFLOWS - OUTFLOWS =        -552376.59     INFLOWS - OUTFLOWS =         -36241.75
             --------                                   --------

 TOTAL STORAGE CHANGE =        -549211.44         STORAGE CHANGE =         -36225.44
       --------------                             --------------
         LAND SURFACE =           3490.55           LAND SURFACE =           -313.84
            SOIL ZONE =        1377005.30              SOIL ZONE =         -24526.01
     UNSATURATED ZONE =       -2833083.43       UNSATURATED ZONE =         -10847.84
       SATURATED ZONE =         903376.14         SATURATED ZONE =           -537.75

 OVERALL BUDGET ERROR =          -3165.16           BUDGET ERROR =            -16.32


  PERCENT DISCREPANCY =             -0.08    PERCENT DISCREPANCY =             -0.05



1
 SUMMARY VOLUMETRIC BUDGET FOR GSFLOW 
 DATE: 02 24 1991              CUMULATIVE TIME STEP:      24
 MODFLOW STRESS PERIOD      6     CURRENT TIME STEP:     147     ITERATIONS:       5

 -----------------------------------------------------------------------------------

   CUMULATIVE VOLUMES               L**3   RATES FOR THIS TIME STEP           L**3/T
   ------------------                      ------------------------

                                     IN                                         IN
                                     --                                         --
        PRECIPITATION =        3510173.01          PRECIPITATION =                  
           STREAMFLOW =                               STREAMFLOW =                  
     GW BOUNDARY FLOW =             21.08       GW BOUNDARY FLOW =              0.68


                                    OUT                                        OUT
                                    ---                                        ---
   EVAPOTRANSPIRATION =        2702387.44     EVAPOTRANSPIRATION =          18296.77
           STREAMFLOW =        1632972.58             STREAMFLOW =          11924.05
     GW BOUNDARY FLOW =           5288.54       GW BOUNDARY FLOW =             35.50

   INFLOWS - OUTFLOWS =        -830454.47     INFLOWS - OUTFLOWS =         -30255.65
             --------                                   --------

 TOTAL STORAGE CHANGE =        -827181.60         STORAGE CHANGE =         -30237.94
       --------------                             --------------
         LAND SURFACE =           1433.48           LAND SURFACE =            -37.49
            SOIL ZONE =        1187890.11              SOIL ZONE =         -17414.56
     UNSATURATED ZONE =       -2908883.16       UNSATURATED ZONE =         -10852.16
       SATURATED ZONE =         892377.98         SATURATED ZONE =          -1933.73

 OVERALL BUDGET ERROR =          -3272.88           BUDGET ERROR =            -17.71


  PERCENT DISCREPANCY =             -0.08    PERCENT DISCREPANCY =             -0.06



1
 SUMMARY VOLUMETRIC BUDGET FOR GSFLOW 
 DATE: 03 03 1991              CUMULATIVE TIME STEP:       3
 MODFLOW STRESS PERIOD      7     CURRENT TIME STEP:     154     ITERATIONS:       6

 -----------------------------------------------------------------------------------

   CUMULATIVE VOLUMES               L**3   RATES FOR THIS TIME STEP           L**3/T
   ------------------                      ------------------------

                                     IN                                         IN
                                     --                                         --
        PRECIPITATION =        6220189.63          PRECIPITATION =        1243187.24
           STREAMFLOW =                               STREAMFLOW =                  
     GW BOUNDARY FLOW =             26.07       GW BOUNDARY FLOW =              0.74


                                    OUT                                        OUT
                                    ---                                        ---
   EVAPOTRANSPIRATION =        2834869.35     EVAPOTRANSPIRATION =           9169.81
           STREAMFLOW =        1716313.88             STREAMFLOW =          12226.19
     GW BOUNDARY FLOW =           5536.68       GW BOUNDARY FLOW =             35.44

   INFLOWS - OUTFLOWS =        1663495.79     INFLOWS - OUTFLOWS =        1221756.55
             --------                                   --------

 TOTAL STORAGE CHANGE =        1666889.91         STORAGE CHANGE =        1221766.81
       --------------                             --------------
         LAND SURFACE =        1646768.25           LAND SURFACE =         190636.27
            SOIL ZONE =        2126667.53              SOIL ZONE =        1041004.49
     UNSATURATED ZONE =       -2982731.32       UNSATURATED ZONE =          -8010.90
       SATURATED ZONE =         876185.45         SATURATED ZONE =          -1863.05

 OVERALL BUDGET ERROR =          -3394.12           BUDGET ERROR =            -10.26


  PERCENT DISCREPANCY =             -0.05    PERCENT DISCREPANCY =             -0.00



1
 SUMMARY VOLUMETRIC BUDGET FOR GSFLOW 
 DATE: 03 10 1991              CUMULATIVE TIME STEP:      10
 MODFLOW STRESS PERIOD      7     CURRENT TIME STEP:     161     ITERATIONS:       5

 -----------------------------------------------------------------------------------

   CUMULATIVE VOLUMES               L**3   RATES FOR THIS TIME STEP           L**3/T
   ------------------                      ------------------------

                                     IN                                         IN
                                     --                                         --
        PRECIPITATION =        8746030.42          PRECIPITATION =          32888.55
           STREAMFLOW =                               STREAMFLOW =                  
     GW BOUNDARY FLOW =             31.45       GW BOUNDARY FLOW =              0.80


                                    OUT                                        OUT
                                    ---                                        ---
   EVAPOTRANSPIRATION =        2902155.93     EVAPOTRANSPIRATION =           8130.66
           STREAMFLOW =        2817003.43             STREAMFLOW =          13891.49
     GW BOUNDARY FLOW =           5791.31       GW BOUNDARY FLOW =             35.43

   INFLOWS - OUTFLOWS =        3021111.21     INFLOWS - OUTFLOWS =          10831.77
             --------                                   --------

 TOTAL STORAGE CHANGE =        3024592.61         STORAGE CHANGE =          10850.45
       --------------                             --------------
         LAND SURFACE =        1442690.50           LAND SURFACE =         -18642.56
            SOIL ZONE =        3676679.88              SOIL ZONE =          27619.77
     UNSATURATED ZONE =       -2962989.66       UNSATURATED ZONE =           3251.57
       SATURATED ZONE =         868211.89         SATURATED ZONE =          -1378.33

 OVERALL BUDGET ERROR =          -3481.40           BUDGET ERROR =            -18.68


  PERCENT DISCREPANCY =             -0.04    PERCENT DISCREPANCY =             -0.06



1
 SUMMARY VOLUMETRIC BUDGET FOR GSFLOW 
 DATE: 03 17 1991              CUMULATIVE TIME STEP:      17
 MODFLOW STRESS PERIOD      7     CURRENT TIME STEP:     168     ITERATIONS:       5

 -----------------------------------------------------------------------------------

   CUMULATIVE VOLUMES               L**3   RATES FOR THIS TIME STEP           L**3/T
   ------------------                      ------------------------

                                     IN                                         IN
                                     --                                         --
        PRECIPITATION =        9897129.71          PRECIPITATION =         157865.04
           STREAMFLOW =                               STREAMFLOW =                  
     GW BOUNDARY FLOW =             37.28       GW BOUNDARY FLOW =              0.86


                                    OUT                                        OUT
                                    ---                                        ---
   EVAPOTRANSPIRATION =        2927716.82     EVAPOTRANSPIRATION =           7509.22
           STREAMFLOW =        2934029.31             STREAMFLOW =          18863.75
     GW BOUNDARY FLOW =           6039.29       GW BOUNDARY FLOW =             35.41

   INFLOWS - OUTFLOWS =        4029381.58     INFLOWS - OUTFLOWS =         131457.52
             --------                                   --------

 TOTAL STORAGE CHANGE =        4032969.63         STORAGE CHANGE =         131474.74
       --------------                             --------------
         LAND SURFACE =        2510890.91           LAND SURFACE =          95731.22
            SOIL ZONE =        3606283.82              SOIL ZONE =          35279.32
     UNSATURATED ZONE =       -2944282.71       UNSATURATED ZONE =           1754.65
       SATURATED ZONE =         860077.62         SATURATED ZONE =          -1290.45

 OVERALL BUDGET ERROR =          -3588.05           BUDGET ERROR =            -17.22


  PERCENT DISCREPANCY =             -0.04    PERCENT DISCREPANCY =             -0.01



1
 SUMMARY VOLUMETRIC BUDGET FOR GSFLOW 
 DATE: 03 24 1991              CUMULATIVE TIME STEP:      24
 MODFLOW STRESS PERIOD      7     CURRENT TIME STEP:     175     ITERATIONS:       7

 -----------------------------------------------------------------------------------

   CUMULATIVE VOLUMES               L**3   RATES FOR THIS TIME STEP           L**3/T
   ------------------                      ------------------------

                                     IN                                         IN
                                     --                                         --
        PRECIPITATION =        1.1673D+07          PRECIPITATION =        1230031.83
           STREAMFLOW =                               STREAMFLOW =                  
     GW BOUNDARY FLOW =             43.53       GW BOUNDARY FLOW =              0.92


                                    OUT                                        OUT
                                    ---                                        ---
   EVAPOTRANSPIRATION =        2964877.12     EVAPOTRANSPIRATION =           4584.29
           STREAMFLOW =        3085053.80             STREAMFLOW =          24226.60
     GW BOUNDARY FLOW =           6287.01       GW BOUNDARY FLOW =             35.38

   INFLOWS - OUTFLOWS =        5616937.11     INFLOWS - OUTFLOWS =        1201186.48
             --------                                   --------

 TOTAL STORAGE CHANGE =        5620615.85         STORAGE CHANGE =        1201191.84
       --------------                             --------------
         LAND SURFACE =        4226592.84           LAND SURFACE =        1227877.69
            SOIL ZONE =        3477179.15              SOIL ZONE =         -26406.99
     UNSATURATED ZONE =       -2935227.88       UNSATURATED ZONE =            677.34
       SATURATED ZONE =         852071.74         SATURATED ZONE =           -956.19

 OVERALL BUDGET ERROR =          -3678.74           BUDGET ERROR =             -5.36


  PERCENT DISCREPANCY =             -0.03    PERCENT DISCREPANCY =             -0.00



1
 SUMMARY VOLUMETRIC BUDGET FOR GSFLOW 
 DATE: 03 31 1991              CUMULATIVE TIME STEP:      31
 MODFLOW STRESS PERIOD      7     CURRENT TIME STEP:     182     ITERATIONS:       7

 -----------------------------------------------------------------------------------

   CUMULATIVE VOLUMES               L**3   RATES FOR THIS TIME STEP           L**3/T
   ------------------                      ------------------------

                                     IN                                         IN
                                     --                                         --
        PRECIPITATION =        1.2495D+07          PRECIPITATION =                  
           STREAMFLOW =                               STREAMFLOW =                  
     GW BOUNDARY FLOW =             50.18       GW BOUNDARY FLOW =              0.97


                                    OUT                                        OUT
                                    ---                                        ---
   EVAPOTRANSPIRATION =        3086200.94     EVAPOTRANSPIRATION =          47925.31
           STREAMFLOW =        3284618.94             STREAMFLOW =          39738.26
     GW BOUNDARY FLOW =           6534.71       GW BOUNDARY FLOW =             35.51

   INFLOWS - OUTFLOWS =        6118020.87     INFLOWS - OUTFLOWS =         -87698.11
             --------                                   --------

 TOTAL STORAGE CHANGE =        6121734.97         STORAGE CHANGE =         -87692.97
       --------------                             --------------
         LAND SURFACE =        4675358.54           LAND SURFACE =        -201940.46
            SOIL ZONE =        3531512.29              SOIL ZONE =         113284.95
     UNSATURATED ZONE =       -2931724.15       UNSATURATED ZONE =           1676.12
       SATURATED ZONE =         846588.29         SATURATED ZONE =           -713.58

 OVERALL BUDGET ERROR =          -3714.10           BUDGET ERROR =             -5.14


  PERCENT DISCREPANCY =             -0.03    PERCENT DISCREPANCY =             -0.01



1
 SUMMARY VOLUMETRIC BUDGET FOR GSFLOW 
 DATE: 04 07 1991              CUMULATIVE TIME STEP:       7
 MODFLOW STRESS PERIOD      8     CURRENT TIME STEP:     189     ITERATIONS:       7

 -----------------------------------------------------------------------------------

   CUMULATIVE VOLUMES               L**3   RATES FOR THIS TIME STEP           L**3/T
   ------------------                      ------------------------

                                     IN                                         IN
                                     --                                         --
        PRECIPITATION =        1.3018D+07          PRECIPITATION =                  
           STREAMFLOW =                               STREAMFLOW =                  
     GW BOUNDARY FLOW =             57.17       GW BOUNDARY FLOW =              1.02


                                    OUT                                        OUT
                                    ---                                        ---
   EVAPOTRANSPIRATION =        3394084.22     EVAPOTRANSPIRATION =          15898.60
           STREAMFLOW =        3790805.63             STREAMFLOW =          72165.74
     GW BOUNDARY FLOW =           6785.44       GW BOUNDARY FLOW =             35.82

   INFLOWS - OUTFLOWS =        5826118.62     INFLOWS - OUTFLOWS =         -88099.14
             --------                                   --------

 TOTAL STORAGE CHANGE =        5829864.94         STORAGE CHANGE =         -88094.66
       --------------                             --------------
         LAND SURFACE =        3065997.50           LAND SURFACE =         -68678.38
            SOIL ZONE =        4803202.49              SOIL ZONE =         -31392.34
     UNSATURATED ZONE =       -2884431.48       UNSATURATED ZONE =          11839.05
       SATURATED ZONE =         845096.43         SATURATED ZONE =            137.02

 OVERALL BUDGET ERROR =          -3746.32           BUDGET ERROR =             -4.49


  PERCENT DISCREPANCY =             -0.03    PERCENT DISCREPANCY =             -0.01



1
 SUMMARY VOLUMETRIC BUDGET FOR GSFLOW 
 DATE: 04 14 1991              CUMULATIVE TIME STEP:      14
 MODFLOW STRESS PERIOD      8     CURRENT TIME STEP:     196     ITERATIONS:       6

 -----------------------------------------------------------------------------------

   CUMULATIVE VOLUMES               L**3   RATES FOR THIS TIME STEP           L**3/T
   ------------------                      ------------------------

                                     IN                                         IN
                                     --                                         --
        PRECIPITATION =        1.3018D+07          PRECIPITATION =                  
           STREAMFLOW =                               STREAMFLOW =                  
     GW BOUNDARY FLOW =             64.48       GW BOUNDARY FLOW =              1.06


                                    OUT                                        OUT
                                    ---                                        ---
   EVAPOTRANSPIRATION =        3578007.04     EVAPOTRANSPIRATION =          42060.22
           STREAMFLOW =        4357021.97             STREAMFLOW =          86945.57
     GW BOUNDARY FLOW =           7036.12       GW BOUNDARY FLOW =             35.82

   INFLOWS - OUTFLOWS =        5075736.08     INFLOWS - OUTFLOWS =        -129040.55
             --------                                   --------

 TOTAL STORAGE CHANGE =        5079511.44         STORAGE CHANGE =        -129037.26
       --------------                             --------------
         LAND SURFACE =        2445283.45           LAND SURFACE =        -172566.98
            SOIL ZONE =        4597258.06              SOIL ZONE =          33495.46
     UNSATURATED ZONE =       -2811461.59       UNSATURATED ZONE =           9384.35
       SATURATED ZONE =         848431.52         SATURATED ZONE =            649.91

 OVERALL BUDGET ERROR =          -3775.36           BUDGET ERROR =             -3.29


  PERCENT DISCREPANCY =             -0.03    PERCENT DISCREPANCY =             -0.00



1
 SUMMARY VOLUMETRIC BUDGET FOR GSFLOW 
 DATE: 04 21 1991              CUMULATIVE TIME STEP:      21
 MODFLOW STRESS PERIOD      8     CURRENT TIME STEP:     203     ITERATIONS:       6

 -----------------------------------------------------------------------------------

   CUMULATIVE VOLUMES               L**3   RATES FOR THIS TIME STEP           L**3/T
   ------------------                      ------------------------

                                     IN                                         IN
                                     --                                         --
        PRECIPITATION =        1.3034D+07          PRECIPITATION =                  
           STREAMFLOW =                               STREAMFLOW =                  
     GW BOUNDARY FLOW =             72.09       GW BOUNDARY FLOW =              1.11


                                    OUT                                        OUT
                                    ---                                        ---
   EVAPOTRANSPIRATION =        3831628.05     EVAPOTRANSPIRATION =          46843.68
           STREAMFLOW =        4935187.48             STREAMFLOW =          85724.14
     GW BOUNDARY FLOW =           7285.93       GW BOUNDARY FLOW =             35.67

   INFLOWS - OUTFLOWS =        4260032.73     INFLOWS - OUTFLOWS =        -132602.38
             --------                                   --------

 TOTAL STORAGE CHANGE =        4263821.88         STORAGE CHANGE =        -132601.26
       --------------                             --------------
         LAND SURFACE =        1509805.79           LAND SURFACE =        -166962.13
            SOIL ZONE =        4650706.86              SOIL ZONE =          24386.15
     UNSATURATED ZONE =       -2749473.59       UNSATURATED ZONE =           9192.31
       SATURATED ZONE =         852782.83         SATURATED ZONE =            782.41

 OVERALL BUDGET ERROR =          -3789.16           BUDGET ERROR =             -1.11


  PERCENT DISCREPANCY =             -0.03    PERCENT DISCREPANCY =             -0.00



1
 SUMMARY VOLUMETRIC BUDGET FOR GSFLOW 
 DATE: 04 28 1991              CUMULATIVE TIME STEP:      28
 MODFLOW STRESS PERIOD      8     CURRENT TIME STEP:     210     ITERATIONS:       7

 -----------------------------------------------------------------------------------

   CUMULATIVE VOLUMES               L**3   RATES FOR THIS TIME STEP           L**3/T
   ------------------                      ------------------------

                                     IN                                         IN
                                     --                                         --
        PRECIPITATION =        1.3303D+07          PRECIPITATION =                  
           STREAMFLOW =                               STREAMFLOW =                  
     GW BOUNDARY FLOW =             79.99       GW BOUNDARY FLOW =              1.15


                                    OUT                                        OUT
                                    ---                                        ---
   EVAPOTRANSPIRATION =        4099730.01     EVAPOTRANSPIRATION =          58070.50
           STREAMFLOW =        5523050.51             STREAMFLOW =          81976.91
     GW BOUNDARY FLOW =           7534.86       GW BOUNDARY FLOW =             35.48

   INFLOWS - OUTFLOWS =        3673195.12     INFLOWS - OUTFLOWS =        -140081.74
             --------                                   --------

 TOTAL STORAGE CHANGE =        3676993.02         STORAGE CHANGE =        -140080.48
       --------------                             --------------
         LAND SURFACE =         898891.25           LAND SURFACE =        -105844.44
            SOIL ZONE =        4607186.81              SOIL ZONE =         -43539.13
     UNSATURATED ZONE =       -2688745.24       UNSATURATED ZONE =           8218.45
       SATURATED ZONE =         859660.20         SATURATED ZONE =           1084.65

 OVERALL BUDGET ERROR =          -3797.90           BUDGET ERROR =             -1.26


  PERCENT DISCREPANCY =             -0.03    PERCENT DISCREPANCY =             -0.00



1
 SUMMARY VOLUMETRIC BUDGET FOR GSFLOW 
 DATE: 05 05 1991              CUMULATIVE TIME STEP:       5
 MODFLOW STRESS PERIOD      9     CURRENT TIME STEP:     217     ITERATIONS:       7

 -----------------------------------------------------------------------------------

   CUMULATIVE VOLUMES               L**3   RATES FOR THIS TIME STEP           L**3/T
   ------------------                      ------------------------

                                     IN                                         IN
                                     --                                         --
        PRECIPITATION =        1.3510D+07          PRECIPITATION =                  
           STREAMFLOW =                               STREAMFLOW =                  
     GW BOUNDARY FLOW =             88.20       GW BOUNDARY FLOW =              1.19


                                    OUT                                        OUT
                                    ---                                        ---
   EVAPOTRANSPIRATION =        4476487.77     EVAPOTRANSPIRATION =          90182.26
           STREAMFLOW =        6010465.37             STREAMFLOW =          61957.89
     GW BOUNDARY FLOW =           7781.63       GW BOUNDARY FLOW =             35.10

   INFLOWS - OUTFLOWS =        3015061.57     INFLOWS - OUTFLOWS =        -152174.06
             --------                                   --------

 TOTAL STORAGE CHANGE =        3018867.13         STORAGE CHANGE =        -152173.28
       --------------                             --------------
         LAND SURFACE =         432766.25           LAND SURFACE =         -94991.40
            SOIL ZONE =        4360488.41              SOIL ZONE =         -64161.55
     UNSATURATED ZONE =       -2642240.73       UNSATURATED ZONE =           5671.44
       SATURATED ZONE =         867853.20         SATURATED ZONE =           1308.24

 OVERALL BUDGET ERROR =          -3805.56           BUDGET ERROR =             -0.78


  PERCENT DISCREPANCY =             -0.03    PERCENT DISCREPANCY =             -0.00



1
 SUMMARY VOLUMETRIC BUDGET FOR GSFLOW 
 DATE: 05 12 1991              CUMULATIVE TIME STEP:      12
 MODFLOW STRESS PERIOD      9     CURRENT TIME STEP:     224     ITERATIONS:       6

 -----------------------------------------------------------------------------------

   CUMULATIVE VOLUMES               L**3   RATES FOR THIS TIME STEP           L**3/T
   ------------------                      ------------------------

                                     IN                                         IN
                                     --                                         --
        PRECIPITATION =        1.4029D+07          PRECIPITATION =                  
           STREAMFLOW =                               STREAMFLOW =                  
     GW BOUNDARY FLOW =             96.73       GW BOUNDARY FLOW =              1.24


                                    OUT                                        OUT
                                    ---                                        ---
   EVAPOTRANSPIRATION =        4871875.04     EVAPOTRANSPIRATION =          68750.33
           STREAMFLOW =        6441562.62             STREAMFLOW =          56958.32
     GW BOUNDARY FLOW =           8026.65       GW BOUNDARY FLOW =             34.89

   INFLOWS - OUTFLOWS =        2707854.58     INFLOWS - OUTFLOWS =        -125742.30
             --------                                   --------

 TOTAL STORAGE CHANGE =        2711662.43         STORAGE CHANGE =        -125742.33
       --------------                             --------------
         LAND SURFACE =         176420.23           LAND SURFACE =         -63628.08
            SOIL ZONE =        4268447.60              SOIL ZONE =         -67369.26
     UNSATURATED ZONE =       -2609795.09       UNSATURATED ZONE =           4301.16
       SATURATED ZONE =         876589.68         SATURATED ZONE =            953.85

 OVERALL BUDGET ERROR =          -3807.85           BUDGET ERROR =              0.02


  PERCENT DISCREPANCY =             -0.03    PERCENT DISCREPANCY =              0.00



1
 SUMMARY VOLUMETRIC BUDGET FOR GSFLOW 
 DATE: 05 19 1991              CUMULATIVE TIME STEP:      19
 MODFLOW STRESS PERIOD      9     CURRENT TIME STEP:     231     ITERATIONS:       6

 -----------------------------------------------------------------------------------

   CUMULATIVE VOLUMES               L**3   RATES FOR THIS TIME STEP           L**3/T
   ------------------                      ------------------------

                                     IN                                         IN
                                     --                                         --
        PRECIPITATION =        1.4365D+07          PRECIPITATION =                  
           STREAMFLOW =                               STREAMFLOW =                  
     GW BOUNDARY FLOW =            105.56       GW BOUNDARY FLOW =              1.28


                                    OUT                                        OUT
                                    ---                                        ---
   EVAPOTRANSPIRATION =        5310310.74     EVAPOTRANSPIRATION =          20369.32
           STREAMFLOW =        6766078.26             STREAMFLOW =          42428.29
     GW BOUNDARY FLOW =           8269.35       GW BOUNDARY FLOW =             34.56

   INFLOWS - OUTFLOWS =        2280825.52     INFLOWS - OUTFLOWS =         -62830.89
             --------                                   --------

 TOTAL STORAGE CHANGE =        2284638.03         STORAGE CHANGE =         -62830.18
       --------------                             --------------
         LAND SURFACE =          87458.91           LAND SURFACE =         -21997.69
            SOIL ZONE =        3910907.32              SOIL ZONE =         -42145.80
     UNSATURATED ZONE =       -2594246.97       UNSATURATED ZONE =            784.18
       SATURATED ZONE =         880518.78         SATURATED ZONE =            529.13

 OVERALL BUDGET ERROR =          -3812.51           BUDGET ERROR =             -0.72


  PERCENT DISCREPANCY =             -0.03    PERCENT DISCREPANCY =             -0.00



1
 SUMMARY VOLUMETRIC BUDGET FOR GSFLOW 
 DATE: 05 26 1991              CUMULATIVE TIME STEP:      26
 MODFLOW STRESS PERIOD      9     CURRENT TIME STEP:     238     ITERATIONS:       7

 -----------------------------------------------------------------------------------

   CUMULATIVE VOLUMES               L**3   RATES FOR THIS TIME STEP           L**3/T
   ------------------                      ------------------------

                                     IN                                         IN
                                     --                                         --
        PRECIPITATION =        1.4426D+07          PRECIPITATION =                  
           STREAMFLOW =                               STREAMFLOW =                  
     GW BOUNDARY FLOW =            114.71       GW BOUNDARY FLOW =              1.33


                                    OUT                                        OUT
                                    ---                                        ---
   EVAPOTRANSPIRATION =        5994786.98     EVAPOTRANSPIRATION =          76940.71
           STREAMFLOW =        7006632.39             STREAMFLOW =          26142.20
     GW BOUNDARY FLOW =           8509.85       GW BOUNDARY FLOW =             34.17

   INFLOWS - OUTFLOWS =        1416683.10     INFLOWS - OUTFLOWS =        -103115.76
             --------                                   --------

 TOTAL STORAGE CHANGE =        1420505.56         STORAGE CHANGE =        -103113.14
       --------------                             --------------
         LAND SURFACE =           6863.60           LAND SURFACE =          -1470.07
            SOIL ZONE =        3135433.85              SOIL ZONE =         -97300.75
     UNSATURATED ZONE =       -2604045.34       UNSATURATED ZONE =          -4231.12
       SATURATED ZONE =         882253.46         SATURATED ZONE =           -111.20

 OVERALL BUDGET ERROR =          -3822.46           BUDGET ERROR =             -2.62


  PERCENT DISCREPANCY =             -0.03    PERCENT DISCREPANCY =             -0.00



1
 SUMMARY VOLUMETRIC BUDGET FOR GSFLOW 
 DATE: 06 02 1991              CUMULATIVE TIME STEP:       2
 MODFLOW STRESS PERIOD     10     CURRENT TIME STEP:     245     ITERATIONS:       6

 -----------------------------------------------------------------------------------

   CUMULATIVE VOLUMES               L**3   RATES FOR THIS TIME STEP           L**3/T
   ------------------                      ------------------------

                                     IN                                         IN
                                     --                                         --
        PRECIPITATION =        1.4671D+07          PRECIPITATION =                  
           STREAMFLOW =                               STREAMFLOW =                  
     GW BOUNDARY FLOW =            124.17       GW BOUNDARY FLOW =              1.37


                                    OUT                                        OUT
                                    ---                                        ---
   EVAPOTRANSPIRATION =        6583597.97     EVAPOTRANSPIRATION =         127630.39
           STREAMFLOW =        7186276.26             STREAMFLOW =          22528.33
     GW BOUNDARY FLOW =           8748.38       GW BOUNDARY FLOW =             33.95

   INFLOWS - OUTFLOWS =         892476.35     INFLOWS - OUTFLOWS =        -150191.30
             --------                                   --------

 TOTAL STORAGE CHANGE =         896335.07         STORAGE CHANGE =        -150184.69
       --------------                             --------------
         LAND SURFACE =           1972.60           LAND SURFACE =           -646.60
            SOIL ZONE =        2658942.11              SOIL ZONE =        -142363.58
     UNSATURATED ZONE =       -2642276.45       UNSATURATED ZONE =          -6118.86
       SATURATED ZONE =         877696.81         SATURATED ZONE =          -1055.65

 OVERALL BUDGET ERROR =          -3858.72           BUDGET ERROR =             -6.61


  PERCENT DISCREPANCY =             -0.03    PERCENT DISCREPANCY =             -0.00



1
 SUMMARY VOLUMETRIC BUDGET FOR GSFLOW 
 DATE: 06 09 1991              CUMULATIVE TIME STEP:       9
 MODFLOW STRESS PERIOD     10     CURRENT TIME STEP:     252     ITERATIONS:       6

 -----------------------------------------------------------------------------------

   CUMULATIVE VOLUMES               L**3   RATES FOR THIS TIME STEP           L**3/T
   ------------------                      ------------------------

                                     IN                                         IN
                                     --                                         --
        PRECIPITATION =        1.4671D+07          PRECIPITATION =                  
           STREAMFLOW =                               STREAMFLOW =                  
     GW BOUNDARY FLOW =            133.94       GW BOUNDARY FLOW =              1.41


                                    OUT                                        OUT
                                    ---                                        ---
   EVAPOTRANSPIRATION =        7372491.89     EVAPOTRANSPIRATION =         172550.47
           STREAMFLOW =        7323994.93             STREAMFLOW =          17861.90
     GW BOUNDARY FLOW =           8985.04       GW BOUNDARY FLOW =             33.70

   INFLOWS - OUTFLOWS =         -34363.12     INFLOWS - OUTFLOWS =        -190444.66
             --------                                   --------

 TOTAL STORAGE CHANGE =         -30442.06         STORAGE CHANGE =        -190434.50
       --------------                             --------------
         LAND SURFACE =             15.64           LAND SURFACE =            -36.78
            SOIL ZONE =        1799238.36              SOIL ZONE =        -179621.00
     UNSATURATED ZONE =       -2696257.43       UNSATURATED ZONE =          -8776.75
       SATURATED ZONE =         866561.37         SATURATED ZONE =          -1999.97

 OVERALL BUDGET ERROR =          -3921.06           BUDGET ERROR =            -10.16


  PERCENT DISCREPANCY =             -0.03    PERCENT DISCREPANCY =             -0.01



1
 SUMMARY VOLUMETRIC BUDGET FOR GSFLOW 
 DATE: 06 16 1991              CUMULATIVE TIME STEP:      16
 MODFLOW STRESS PERIOD     10     CURRENT TIME STEP:     259     ITERATIONS:       6

 -----------------------------------------------------------------------------------

   CUMULATIVE VOLUMES               L**3   RATES FOR THIS TIME STEP           L**3/T
   ------------------                      ------------------------

                                     IN                                         IN
                                     --                                         --
        PRECIPITATION =        1.4671D+07          PRECIPITATION =                  
           STREAMFLOW =                               STREAMFLOW =                  
     GW BOUNDARY FLOW =            144.01       GW BOUNDARY FLOW =              1.46


                                    OUT                                        OUT
                                    ---                                        ---
   EVAPOTRANSPIRATION =        8384905.69     EVAPOTRANSPIRATION =         115380.35
           STREAMFLOW =        7439964.88             STREAMFLOW =          16107.36
     GW BOUNDARY FLOW =           9220.16       GW BOUNDARY FLOW =             33.51

   INFLOWS - OUTFLOWS =       -1162971.93     INFLOWS - OUTFLOWS =        -131519.76
             --------                                   --------

 TOTAL STORAGE CHANGE =       -1158941.09         STORAGE CHANGE =        -131508.75
       --------------                             --------------
         LAND SURFACE =                             LAND SURFACE =                  
            SOIL ZONE =         802617.37              SOIL ZONE =        -107161.48
     UNSATURATED ZONE =       -2807121.95       UNSATURATED ZONE =         -20348.09
       SATURATED ZONE =         845563.50         SATURATED ZONE =          -3999.18

 OVERALL BUDGET ERROR =          -4030.84           BUDGET ERROR =            -11.02


  PERCENT DISCREPANCY =             -0.03    PERCENT DISCREPANCY =             -0.01



1
 SUMMARY VOLUMETRIC BUDGET FOR GSFLOW 
 DATE: 06 23 1991              CUMULATIVE TIME STEP:      23
 MODFLOW STRESS PERIOD     10     CURRENT TIME STEP:     266     ITERATIONS:       6

 -----------------------------------------------------------------------------------

   CUMULATIVE VOLUMES               L**3   RATES FOR THIS TIME STEP           L**3/T
   ------------------                      ------------------------

                                     IN                                         IN
                                     --                                         --
        PRECIPITATION =        1.4671D+07          PRECIPITATION =                  
           STREAMFLOW =                               STREAMFLOW =                  
     GW BOUNDARY FLOW =            154.31       GW BOUNDARY FLOW =              1.46


                                    OUT                                        OUT
                                    ---                                        ---
   EVAPOTRANSPIRATION =        8912097.63     EVAPOTRANSPIRATION =          37135.31
           STREAMFLOW =        7549293.43             STREAMFLOW =          15326.15
     GW BOUNDARY FLOW =           9454.08       GW BOUNDARY FLOW =             33.35

   INFLOWS - OUTFLOWS =       -1799716.03     INFLOWS - OUTFLOWS =         -52493.34
             --------                                   --------

 TOTAL STORAGE CHANGE =       -1795583.01         STORAGE CHANGE =         -52482.54
       --------------                             --------------
         LAND SURFACE =                             LAND SURFACE =                  
            SOIL ZONE =         330329.51              SOIL ZONE =         -33090.55
     UNSATURATED ZONE =       -2936686.97       UNSATURATED ZONE =         -14142.72
       SATURATED ZONE =         810774.45         SATURATED ZONE =          -5249.28

 OVERALL BUDGET ERROR =          -4133.02           BUDGET ERROR =            -10.80


  PERCENT DISCREPANCY =             -0.03    PERCENT DISCREPANCY =             -0.02



1
 SUMMARY VOLUMETRIC BUDGET FOR GSFLOW 
 DATE: 06 30 1991              CUMULATIVE TIME STEP:      30
 MODFLOW STRESS PERIOD     10     CURRENT TIME STEP:     273     ITERATIONS:       6

 -----------------------------------------------------------------------------------

   CUMULATIVE VOLUMES               L**3   RATES FOR THIS TIME STEP           L**3/T
   ------------------                      ------------------------

                                     IN                                         IN
[...]
                                    ---                                        ---
   EVAPOTRANSPIRATION =        1.4080D+08     EVAPOTRANSPIRATION =          14787.03
           STREAMFLOW =        1.2481D+08             STREAMFLOW =           2799.13
     GW BOUNDARY FLOW =          95536.26       GW BOUNDARY FLOW =             21.79

   INFLOWS - OUTFLOWS =       -2.5689D+07     INFLOWS - OUTFLOWS =         -17601.79
             --------                                   --------

 TOTAL STORAGE CHANGE =       -2.5672D+07         STORAGE CHANGE =         -17583.09
       --------------                             --------------
         LAND SURFACE =                             LAND SURFACE =                  
            SOIL ZONE =       -1990762.08              SOIL ZONE =          -3547.05
     UNSATURATED ZONE =         409042.57       UNSATURATED ZONE =          -1824.50
       SATURATED ZONE =       -2.4090D+07         SATURATED ZONE =         -12211.55

 OVERALL BUDGET ERROR =         -17008.97           BUDGET ERROR =            -18.69


  PERCENT DISCREPANCY =             -0.01    PERCENT DISCREPANCY =             -0.11



1
 SUMMARY VOLUMETRIC BUDGET FOR GSFLOW 
 DATE: 09 03 2000              CUMULATIVE TIME STEP:       3
 MODFLOW STRESS PERIOD    121     CURRENT TIME STEP:    3626     ITERATIONS:      13

 -----------------------------------------------------------------------------------

   CUMULATIVE VOLUMES               L**3   RATES FOR THIS TIME STEP           L**3/T
   ------------------                      ------------------------

                                     IN                                         IN
                                     --                                         --
        PRECIPITATION =        2.4013D+08          PRECIPITATION =                  
           STREAMFLOW =                               STREAMFLOW =                  
     GW BOUNDARY FLOW =          14872.88       GW BOUNDARY FLOW =              6.17


                                    OUT                                        OUT
                                    ---                                        ---
   EVAPOTRANSPIRATION =        1.4088D+08     EVAPOTRANSPIRATION =          27658.26
           STREAMFLOW =        1.2484D+08             STREAMFLOW =           6540.64
     GW BOUNDARY FLOW =          95690.15       GW BOUNDARY FLOW =             22.24

   INFLOWS - OUTFLOWS =       -2.5670D+07     INFLOWS - OUTFLOWS =         -34214.97
             --------                                   --------

 TOTAL STORAGE CHANGE =       -2.5653D+07         STORAGE CHANGE =         -34214.56
       --------------                             --------------
         LAND SURFACE =           6812.65           LAND SURFACE =         -27343.30
            SOIL ZONE =       -1906575.01              SOIL ZONE =           -268.74
     UNSATURATED ZONE =         396745.62       UNSATURATED ZONE =          -1722.84
       SATURATED ZONE =       -2.4150D+07         SATURATED ZONE =          -4879.69

 OVERALL BUDGET ERROR =         -17010.28           BUDGET ERROR =             -0.40


  PERCENT DISCREPANCY =             -0.01    PERCENT DISCREPANCY =             -0.00



1
 SUMMARY VOLUMETRIC BUDGET FOR GSFLOW 
 DATE: 09 10 2000              CUMULATIVE TIME STEP:      10
 MODFLOW STRESS PERIOD    121     CURRENT TIME STEP:    3633     ITERATIONS:      10

 -----------------------------------------------------------------------------------

   CUMULATIVE VOLUMES               L**3   RATES FOR THIS TIME STEP           L**3/T
   ------------------                      ------------------------

                                     IN                                         IN
                                     --                                         --
        PRECIPITATION =        2.4013D+08          PRECIPITATION =                  
           STREAMFLOW =                               STREAMFLOW =                  
     GW BOUNDARY FLOW =          14916.12       GW BOUNDARY FLOW =              6.18


                                    OUT                                        OUT
                                    ---                                        ---
   EVAPOTRANSPIRATION =        1.4096D+08     EVAPOTRANSPIRATION =          10393.06
           STREAMFLOW =        1.2487D+08             STREAMFLOW =           4402.62
     GW BOUNDARY FLOW =          95844.40       GW BOUNDARY FLOW =             22.01

   INFLOWS - OUTFLOWS =       -2.5785D+07     INFLOWS - OUTFLOWS =         -14811.51
             --------                                   --------

 TOTAL STORAGE CHANGE =       -2.5768D+07         STORAGE CHANGE =         -14810.38
       --------------                             --------------
         LAND SURFACE =                             LAND SURFACE =                  
            SOIL ZONE =       -1942076.80              SOIL ZONE =          -4298.07
     UNSATURATED ZONE =         383749.32       UNSATURATED ZONE =          -2767.02
       SATURATED ZONE =       -2.4210D+07         SATURATED ZONE =          -7745.28

 OVERALL BUDGET ERROR =         -17015.38           BUDGET ERROR =             -1.13


  PERCENT DISCREPANCY =             -0.01    PERCENT DISCREPANCY =             -0.01



1
 SUMMARY VOLUMETRIC BUDGET FOR GSFLOW 
 DATE: 09 17 2000              CUMULATIVE TIME STEP:      17
 MODFLOW STRESS PERIOD    121     CURRENT TIME STEP:    3640     ITERATIONS:       7

 -----------------------------------------------------------------------------------

   CUMULATIVE VOLUMES               L**3   RATES FOR THIS TIME STEP           L**3/T
   ------------------                      ------------------------

                                     IN                                         IN
                                     --                                         --
        PRECIPITATION =        2.4013D+08          PRECIPITATION =                  
           STREAMFLOW =                               STREAMFLOW =                  
     GW BOUNDARY FLOW =          14959.43       GW BOUNDARY FLOW =              6.19


                                    OUT                                        OUT
                                    ---                                        ---
   EVAPOTRANSPIRATION =        1.4104D+08     EVAPOTRANSPIRATION =          10361.51
           STREAMFLOW =        1.2490D+08             STREAMFLOW =           4112.78
     GW BOUNDARY FLOW =          95998.06       GW BOUNDARY FLOW =             21.97

   INFLOWS - OUTFLOWS =       -2.5895D+07     INFLOWS - OUTFLOWS =         -14490.06
             --------                                   --------

 TOTAL STORAGE CHANGE =       -2.5878D+07         STORAGE CHANGE =         -14488.64
       --------------                             --------------
         LAND SURFACE =                             LAND SURFACE =                  
            SOIL ZONE =       -1969849.88              SOIL ZONE =          -2901.88
     UNSATURATED ZONE =         371870.57       UNSATURATED ZONE =          -1678.68
       SATURATED ZONE =       -2.4280D+07         SATURATED ZONE =          -9908.08

 OVERALL BUDGET ERROR =         -17016.95           BUDGET ERROR =             -1.42


  PERCENT DISCREPANCY =             -0.01    PERCENT DISCREPANCY =             -0.01



1
 SUMMARY VOLUMETRIC BUDGET FOR GSFLOW 
 DATE: 09 24 2000              CUMULATIVE TIME STEP:      24
 MODFLOW STRESS PERIOD    121     CURRENT TIME STEP:    3647     ITERATIONS:       5

 -----------------------------------------------------------------------------------

   CUMULATIVE VOLUMES               L**3   RATES FOR THIS TIME STEP           L**3/T
   ------------------                      ------------------------

                                     IN                                         IN
                                     --                                         --
        PRECIPITATION =        2.4013D+08          PRECIPITATION =                  
           STREAMFLOW =                               STREAMFLOW =                  
     GW BOUNDARY FLOW =          15002.81       GW BOUNDARY FLOW =              6.20


                                    OUT                                        OUT
                                    ---                                        ---
   EVAPOTRANSPIRATION =        1.4110D+08     EVAPOTRANSPIRATION =           5068.91
           STREAMFLOW =        1.2493D+08             STREAMFLOW =           5339.96
     GW BOUNDARY FLOW =          96152.15       GW BOUNDARY FLOW =             22.10

   INFLOWS - OUTFLOWS =       -2.5983D+07     INFLOWS - OUTFLOWS =         -10424.77
             --------                                   --------

 TOTAL STORAGE CHANGE =       -2.5966D+07         STORAGE CHANGE =         -10420.36
       --------------                             --------------
         LAND SURFACE =                             LAND SURFACE =                  
            SOIL ZONE =       -1982787.79              SOIL ZONE =          -1012.48
     UNSATURATED ZONE =         360480.74       UNSATURATED ZONE =          -1562.04
       SATURATED ZONE =       -2.4343D+07         SATURATED ZONE =          -7845.83

 OVERALL BUDGET ERROR =         -17026.93           BUDGET ERROR =             -4.41


  PERCENT DISCREPANCY =             -0.01    PERCENT DISCREPANCY =             -0.04



1
 SUMMARY VOLUMETRIC BUDGET FOR GSFLOW 
 DATE: 10 01 2000              CUMULATIVE TIME STEP:       1
 MODFLOW STRESS PERIOD    122     CURRENT TIME STEP:    3654     ITERATIONS:       7

 -----------------------------------------------------------------------------------

   CUMULATIVE VOLUMES               L**3   RATES FOR THIS TIME STEP           L**3/T
   ------------------                      ------------------------

                                     IN                                         IN
                                     --                                         --
        PRECIPITATION =        2.4013D+08          PRECIPITATION =                  
           STREAMFLOW =                               STREAMFLOW =                  
     GW BOUNDARY FLOW =          15046.25       GW BOUNDARY FLOW =              6.21


                                    OUT                                        OUT
                                    ---                                        ---
   EVAPOTRANSPIRATION =        1.4116D+08     EVAPOTRANSPIRATION =           8146.65
           STREAMFLOW =        1.2496D+08             STREAMFLOW =           4416.15
     GW BOUNDARY FLOW =          96306.15       GW BOUNDARY FLOW =             22.00

   INFLOWS - OUTFLOWS =       -2.6072D+07     INFLOWS - OUTFLOWS =         -12578.58
             --------                                   --------

 TOTAL STORAGE CHANGE =       -2.6055D+07         STORAGE CHANGE =         -12578.94
       --------------                             --------------
         LAND SURFACE =                             LAND SURFACE =                  
            SOIL ZONE =       -1993705.18              SOIL ZONE =          -1428.95
     UNSATURATED ZONE =         348903.99       UNSATURATED ZONE =          -1623.88
       SATURATED ZONE =       -2.4410D+07         SATURATED ZONE =          -9526.11

 OVERALL BUDGET ERROR =         -17030.20           BUDGET ERROR =              0.35


  PERCENT DISCREPANCY =             -0.01    PERCENT DISCREPANCY =              0.00



1
 SUMMARY VOLUMETRIC BUDGET FOR GSFLOW 
 DATE: 10 08 2000              CUMULATIVE TIME STEP:       8
 MODFLOW STRESS PERIOD    122     CURRENT TIME STEP:    3661     ITERATIONS:       3

 -----------------------------------------------------------------------------------

   CUMULATIVE VOLUMES               L**3   RATES FOR THIS TIME STEP           L**3/T
   ------------------                      ------------------------

                                     IN                                         IN
                                     --                                         --
        PRECIPITATION =        2.4013D+08          PRECIPITATION =                  
           STREAMFLOW =                               STREAMFLOW =                  
     GW BOUNDARY FLOW =          15089.75       GW BOUNDARY FLOW =              6.22


                                    OUT                                        OUT
                                    ---                                        ---
   EVAPOTRANSPIRATION =        1.4121D+08     EVAPOTRANSPIRATION =           6841.05
           STREAMFLOW =        1.2499D+08             STREAMFLOW =           4819.69
     GW BOUNDARY FLOW =          96460.36       GW BOUNDARY FLOW =             22.04

   INFLOWS - OUTFLOWS =       -2.6155D+07     INFLOWS - OUTFLOWS =         -11676.56
             --------                                   --------

 TOTAL STORAGE CHANGE =       -2.6138D+07         STORAGE CHANGE =         -11610.39
       --------------                             --------------
         LAND SURFACE =                             LAND SURFACE =                  
            SOIL ZONE =       -2001836.31              SOIL ZONE =          -1065.13
     UNSATURATED ZONE =         337724.66       UNSATURATED ZONE =          -1610.49
       SATURATED ZONE =       -2.4474D+07         SATURATED ZONE =          -8934.77

 OVERALL BUDGET ERROR =         -17097.75           BUDGET ERROR =            -66.17


  PERCENT DISCREPANCY =             -0.01    PERCENT DISCREPANCY =             -0.57



1
 SUMMARY VOLUMETRIC BUDGET FOR GSFLOW 
 DATE: 10 15 2000              CUMULATIVE TIME STEP:      15
 MODFLOW STRESS PERIOD    122     CURRENT TIME STEP:    3668     ITERATIONS:       4

 -----------------------------------------------------------------------------------

   CUMULATIVE VOLUMES               L**3   RATES FOR THIS TIME STEP           L**3/T
   ------------------                      ------------------------

                                     IN                                         IN
                                     --                                         --
        PRECIPITATION =        2.4034D+08          PRECIPITATION =                  
           STREAMFLOW =                               STREAMFLOW =                  
     GW BOUNDARY FLOW =          15133.29       GW BOUNDARY FLOW =              6.22


                                    OUT                                        OUT
                                    ---                                        ---
   EVAPOTRANSPIRATION =        1.4127D+08     EVAPOTRANSPIRATION =           7833.02
           STREAMFLOW =        1.2504D+08             STREAMFLOW =           6147.36
     GW BOUNDARY FLOW =          96616.03       GW BOUNDARY FLOW =             22.20

   INFLOWS - OUTFLOWS =       -2.6047D+07     INFLOWS - OUTFLOWS =         -13996.36
             --------                                   --------

 TOTAL STORAGE CHANGE =       -2.6030D+07         STORAGE CHANGE =         -13978.91
       --------------                             --------------
         LAND SURFACE =             11.44           LAND SURFACE =            -58.62
            SOIL ZONE =       -1839695.35              SOIL ZONE =          -5117.00
     UNSATURATED ZONE =         326505.47       UNSATURATED ZONE =          -1630.84
       SATURATED ZONE =       -2.4517D+07         SATURATED ZONE =          -7172.45

 OVERALL BUDGET ERROR =         -17127.09           BUDGET ERROR =            -17.45


  PERCENT DISCREPANCY =             -0.01    PERCENT DISCREPANCY =             -0.12



1
 SUMMARY VOLUMETRIC BUDGET FOR GSFLOW 
 DATE: 10 22 2000              CUMULATIVE TIME STEP:      22
 MODFLOW STRESS PERIOD    122     CURRENT TIME STEP:    3675     ITERATIONS:       5

 -----------------------------------------------------------------------------------

   CUMULATIVE VOLUMES               L**3   RATES FOR THIS TIME STEP           L**3/T
   ------------------                      ------------------------

                                     IN                                         IN
                                     --                                         --
        PRECIPITATION =        2.4039D+08          PRECIPITATION =                  
           STREAMFLOW =                               STREAMFLOW =                  
     GW BOUNDARY FLOW =          15176.89       GW BOUNDARY FLOW =              6.23


                                    OUT                                        OUT
                                    ---                                        ---
   EVAPOTRANSPIRATION =        1.4133D+08     EVAPOTRANSPIRATION =           8058.57
           STREAMFLOW =        1.2508D+08             STREAMFLOW =           7144.81
     GW BOUNDARY FLOW =          96771.63       GW BOUNDARY FLOW =             22.33

   INFLOWS - OUTFLOWS =       -2.6103D+07     INFLOWS - OUTFLOWS =         -15219.48
             --------                                   --------

 TOTAL STORAGE CHANGE =       -2.6086D+07         STORAGE CHANGE =         -15214.74
       --------------                             --------------
         LAND SURFACE =          16310.09           LAND SURFACE =          -7992.89
            SOIL ZONE =       -1851813.09              SOIL ZONE =            -15.42
     UNSATURATED ZONE =         315229.86       UNSATURATED ZONE =          -1575.67
       SATURATED ZONE =       -2.4566D+07         SATURATED ZONE =          -5630.76

 OVERALL BUDGET ERROR =         -17156.51           BUDGET ERROR =             -4.74


  PERCENT DISCREPANCY =             -0.01    PERCENT DISCREPANCY =             -0.03



1
 SUMMARY VOLUMETRIC BUDGET FOR GSFLOW 
 DATE: 10 29 2000              CUMULATIVE TIME STEP:      29
 MODFLOW STRESS PERIOD    122     CURRENT TIME STEP:    3682     ITERATIONS:       5

 -----------------------------------------------------------------------------------

   CUMULATIVE VOLUMES               L**3   RATES FOR THIS TIME STEP           L**3/T
   ------------------                      ------------------------

                                     IN                                         IN
                                     --                                         --
        PRECIPITATION =        2.4111D+08          PRECIPITATION =          24578.20
           STREAMFLOW =                               STREAMFLOW =                  
     GW BOUNDARY FLOW =          15220.52       GW BOUNDARY FLOW =              6.24


                                    OUT                                        OUT
                                    ---                                        ---
   EVAPOTRANSPIRATION =        1.4137D+08     EVAPOTRANSPIRATION =           4541.11
           STREAMFLOW =        1.2513D+08             STREAMFLOW =           7156.56
     GW BOUNDARY FLOW =          96927.90       GW BOUNDARY FLOW =             22.36

   INFLOWS - OUTFLOWS =       -2.5473D+07     INFLOWS - OUTFLOWS =          12864.40
             --------                                   --------

 TOTAL STORAGE CHANGE =       -2.5456D+07         STORAGE CHANGE =          12869.06
       --------------                             --------------
         LAND SURFACE =         446727.37           LAND SURFACE =          21846.62
            SOIL ZONE =       -1598202.08              SOIL ZONE =          -1563.94
     UNSATURATED ZONE =         304304.58       UNSATURATED ZONE =          -1565.19
       SATURATED ZONE =       -2.4609D+07         SATURATED ZONE =          -5848.43

 OVERALL BUDGET ERROR =         -17175.56           BUDGET ERROR =             -4.66


  PERCENT DISCREPANCY =             -0.01    PERCENT DISCREPANCY =             -0.02



