1
 SUMMARY VOLUMETRIC BUDGET FOR GSFLOW 
 DATE: 10 07 1990              CUMULATIVE TIME STEP:       7
 MODFLOW STRESS PERIOD      2     CURRENT TIME STEP:       7     ITERATIONS:       7

 -----------------------------------------------------------------------------------

   CUMULATIVE VOLUMES               L**3   RATES FOR THIS TIME STEP           L**3/T
   ------------------                      ------------------------

                                     IN                                         IN
                                     --                                         --
        PRECIPITATION =                            PRECIPITATION =                  
           STREAMFLOW =                               STREAMFLOW =                  
     GW BOUNDARY FLOW =                         GW BOUNDARY FLOW =                  


                                    OUT                                        OUT
                                    ---                                        ---
   EVAPOTRANSPIRATION =         385019.00     EVAPOTRANSPIRATION =          11801.64
           STREAMFLOW =          44249.52             STREAMFLOW =           7980.38
     GW BOUNDARY FLOW =            252.73       GW BOUNDARY FLOW =             36.30

   INFLOWS - OUTFLOWS =        -429521.25     INFLOWS - OUTFLOWS =         -19818.32
             --------                                   --------

 TOTAL STORAGE CHANGE =        -428041.12         STORAGE CHANGE =         -19791.51
       --------------                             --------------
         LAND SURFACE =                             LAND SURFACE =                  
            SOIL ZONE =         -33650.71              SOIL ZONE =           -949.29
     UNSATURATED ZONE =        -502712.71       UNSATURATED ZONE =         -33632.01
       SATURATED ZONE =         108322.30         SATURATED ZONE =          14789.79

 OVERALL BUDGET ERROR =          -1480.13           BUDGET ERROR =            -26.81


  PERCENT DISCREPANCY =             -0.35    PERCENT DISCREPANCY =             -0.14



1
 SUMMARY VOLUMETRIC BUDGET FOR GSFLOW 
 DATE: 10 14 1990              CUMULATIVE TIME STEP:      14
 MODFLOW STRESS PERIOD      2     CURRENT TIME STEP:      14     ITERATIONS:       6

 -----------------------------------------------------------------------------------

   CUMULATIVE VOLUMES               L**3   RATES FOR THIS TIME STEP           L**3/T
   ------------------                      ------------------------

                                     IN                                         IN
                                     --                                         --
        PRECIPITATION =                            PRECIPITATION =                  
           STREAMFLOW =                               STREAMFLOW =                  
     GW BOUNDARY FLOW =                         GW BOUNDARY FLOW =                  


                                    OUT                                        OUT
                                    ---                                        ---
   EVAPOTRANSPIRATION =         665264.26     EVAPOTRANSPIRATION =          42323.76
           STREAMFLOW =          97921.12             STREAMFLOW =           7278.26
     GW BOUNDARY FLOW =            506.54       GW BOUNDARY FLOW =             36.24

   INFLOWS - OUTFLOWS =        -763691.92     INFLOWS - OUTFLOWS =         -49638.26
             --------                                   --------

 TOTAL STORAGE CHANGE =        -761925.69         STORAGE CHANGE =         -49616.98
       --------------                             --------------
         LAND SURFACE =                             LAND SURFACE =                  
            SOIL ZONE =         -58655.50              SOIL ZONE =          -4416.70
     UNSATURATED ZONE =        -877930.97       UNSATURATED ZONE =         -52123.17
       SATURATED ZONE =         174660.77         SATURATED ZONE =           6922.89

 OVERALL BUDGET ERROR =          -1766.23           BUDGET ERROR =            -21.29


  PERCENT DISCREPANCY =             -0.23    PERCENT DISCREPANCY =             -0.04



1
 SUMMARY VOLUMETRIC BUDGET FOR GSFLOW 
 DATE: 10 21 1990              CUMULATIVE TIME STEP:      21
 MODFLOW STRESS PERIOD      2     CURRENT TIME STEP:      21     ITERATIONS:       6

 -----------------------------------------------------------------------------------

   CUMULATIVE VOLUMES               L**3   RATES FOR THIS TIME STEP           L**3/T
   ------------------                      ------------------------

                                     IN                                         IN
                                     --                                         --
        PRECIPITATION =         188432.87          PRECIPITATION =                  
           STREAMFLOW =                               STREAMFLOW =                  
     GW BOUNDARY FLOW =                         GW BOUNDARY FLOW =                  


                                    OUT                                        OUT
                                    ---                                        ---
   EVAPOTRANSPIRATION =         815540.14     EVAPOTRANSPIRATION =          41709.13
           STREAMFLOW =         159590.30             STREAMFLOW =           9991.00
     GW BOUNDARY FLOW =            760.68       GW BOUNDARY FLOW =             36.37

   INFLOWS - OUTFLOWS =        -787458.26     INFLOWS - OUTFLOWS =         -51736.50
             --------                                   --------

 TOTAL STORAGE CHANGE =        -785637.21         STORAGE CHANGE =         -51741.22
       --------------                             --------------
         LAND SURFACE =          18885.57           LAND SURFACE =         -43558.49
            SOIL ZONE =          48184.26              SOIL ZONE =           2052.88
     UNSATURATED ZONE =       -1091888.73       UNSATURATED ZONE =         -21361.06
       SATURATED ZONE =         239181.69         SATURATED ZONE =          11125.45

 OVERALL BUDGET ERROR =          -1821.05           BUDGET ERROR =              4.72


  PERCENT DISCREPANCY =             -0.19    PERCENT DISCREPANCY =              0.01



1
 SUMMARY VOLUMETRIC BUDGET FOR GSFLOW 
 DATE: 10 28 1990              CUMULATIVE TIME STEP:      28
 MODFLOW STRESS PERIOD      2     CURRENT TIME STEP:      28     ITERATIONS:       6

 -----------------------------------------------------------------------------------

   CUMULATIVE VOLUMES               L**3   RATES FOR THIS TIME STEP           L**3/T
   ------------------                      ------------------------

                                     IN                                         IN
                                     --                                         --
        PRECIPITATION =         188432.87          PRECIPITATION =                  
           STREAMFLOW =                               STREAMFLOW =                  
     GW BOUNDARY FLOW =                         GW BOUNDARY FLOW =                  


                                    OUT                                        OUT
                                    ---                                        ---
   EVAPOTRANSPIRATION =         943978.88     EVAPOTRANSPIRATION =          11840.58
           STREAMFLOW =         220048.36             STREAMFLOW =           8786.07
     GW BOUNDARY FLOW =           1013.84       GW BOUNDARY FLOW =             36.12

   INFLOWS - OUTFLOWS =        -976608.21     INFLOWS - OUTFLOWS =         -20662.78
             --------                                   --------

 TOTAL STORAGE CHANGE =        -974774.01         STORAGE CHANGE =         -20664.88
       --------------                             --------------
         LAND SURFACE =                             LAND SURFACE =                  
            SOIL ZONE =          19145.49              SOIL ZONE =          -3436.27
     UNSATURATED ZONE =       -1275335.95       UNSATURATED ZONE =         -23249.90
       SATURATED ZONE =         281416.45         SATURATED ZONE =           6021.29

 OVERALL BUDGET ERROR =          -1834.20           BUDGET ERROR =              2.11


  PERCENT DISCREPANCY =             -0.16    PERCENT DISCREPANCY =              0.01



1
 SUMMARY VOLUMETRIC BUDGET FOR GSFLOW 
 DATE: 11 04 1990              CUMULATIVE TIME STEP:       4
 MODFLOW STRESS PERIOD      3     CURRENT TIME STEP:      35     ITERATIONS:       6

 -----------------------------------------------------------------------------------

   CUMULATIVE VOLUMES               L**3   RATES FOR THIS TIME STEP           L**3/T
   ------------------                      ------------------------

                                     IN                                         IN
                                     --                                         --
        PRECIPITATION =         703113.06          PRECIPITATION =                  
           STREAMFLOW =                               STREAMFLOW =                  
     GW BOUNDARY FLOW =                         GW BOUNDARY FLOW =                  


                                    OUT                                        OUT
                                    ---                                        ---
   EVAPOTRANSPIRATION =        1004583.21     EVAPOTRANSPIRATION =          26280.47
           STREAMFLOW =         289307.96             STREAMFLOW =          10383.65
     GW BOUNDARY FLOW =           1266.85       GW BOUNDARY FLOW =             36.13

   INFLOWS - OUTFLOWS =        -592044.96     INFLOWS - OUTFLOWS =         -36700.25
             --------                                   --------

 TOTAL STORAGE CHANGE =        -590232.29         STORAGE CHANGE =         -36704.90
       --------------                             --------------
         LAND SURFACE =         132159.65           LAND SURFACE =        -160480.33
            SOIL ZONE =         356552.71              SOIL ZONE =         134353.59
     UNSATURATED ZONE =       -1420989.44       UNSATURATED ZONE =         -20047.25
       SATURATED ZONE =         342044.79         SATURATED ZONE =           9469.09

 OVERALL BUDGET ERROR =          -1812.67           BUDGET ERROR =              4.65


  PERCENT DISCREPANCY =             -0.14    PERCENT DISCREPANCY =              0.01



1
 SUMMARY VOLUMETRIC BUDGET FOR GSFLOW 
 DATE: 11 11 1990              CUMULATIVE TIME STEP:      11
 MODFLOW STRESS PERIOD      3     CURRENT TIME STEP:      42     ITERATIONS:       6

 -----------------------------------------------------------------------------------

   CUMULATIVE VOLUMES               L**3   RATES FOR THIS TIME STEP           L**3/T
   ------------------                      ------------------------

                                     IN                                         IN
                                     --                                         --
        PRECIPITATION =         703113.06          PRECIPITATION =                  
           STREAMFLOW =                               STREAMFLOW =                  
     GW BOUNDARY FLOW =                         GW BOUNDARY FLOW =                  


                                    OUT                                        OUT
                                    ---                                        ---
   EVAPOTRANSPIRATION =        1081776.90     EVAPOTRANSPIRATION =          12147.36
           STREAMFLOW =         359040.54             STREAMFLOW =           9480.72
     GW BOUNDARY FLOW =           1518.92       GW BOUNDARY FLOW =             35.92

   INFLOWS - OUTFLOWS =        -739223.30     INFLOWS - OUTFLOWS =         -21664.00
             --------                                   --------

 TOTAL STORAGE CHANGE =        -737431.36         STORAGE CHANGE =         -21666.64
       --------------                             --------------
         LAND SURFACE =            595.09           LAND SURFACE =          -1416.54
            SOIL ZONE =         429477.71              SOIL ZONE =          -5401.69
     UNSATURATED ZONE =       -1560110.04       UNSATURATED ZONE =         -19846.78
       SATURATED ZONE =         392605.88         SATURATED ZONE =           4998.37

 OVERALL BUDGET ERROR =          -1791.95           BUDGET ERROR =              2.64


  PERCENT DISCREPANCY =             -0.12    PERCENT DISCREPANCY =              0.01



1
 SUMMARY VOLUMETRIC BUDGET FOR GSFLOW 
 DATE: 11 18 1990              CUMULATIVE TIME STEP:      18
 MODFLOW STRESS PERIOD      3     CURRENT TIME STEP:      49     ITERATIONS:       6

 -----------------------------------------------------------------------------------

   CUMULATIVE VOLUMES               L**3   RATES FOR THIS TIME STEP           L**3/T
   ------------------                      ------------------------

                                     IN                                         IN
                                     --                                         --
        PRECIPITATION =         747883.35          PRECIPITATION =                  
           STREAMFLOW =                               STREAMFLOW =                  
     GW BOUNDARY FLOW =                         GW BOUNDARY FLOW =                  


                                    OUT                                        OUT
                                    ---                                        ---
   EVAPOTRANSPIRATION =        1154235.35     EVAPOTRANSPIRATION =           5053.74
           STREAMFLOW =         429615.00             STREAMFLOW =          10520.20
     GW BOUNDARY FLOW =           1770.20       GW BOUNDARY FLOW =             35.88

   INFLOWS - OUTFLOWS =        -837737.21     INFLOWS - OUTFLOWS =         -15609.81
             --------                                   --------

 TOTAL STORAGE CHANGE =        -835960.93         STORAGE CHANGE =         -15612.91
       --------------                             --------------
         LAND SURFACE =           7868.08           LAND SURFACE =          -3691.47
            SOIL ZONE =         411946.48              SOIL ZONE =           -677.84
     UNSATURATED ZONE =       -1693286.85       UNSATURATED ZONE =         -18576.91
       SATURATED ZONE =         437511.36         SATURATED ZONE =           7333.31

 OVERALL BUDGET ERROR =          -1776.28           BUDGET ERROR =              3.11


  PERCENT DISCREPANCY =             -0.11    PERCENT DISCREPANCY =              0.02



1
 SUMMARY VOLUMETRIC BUDGET FOR GSFLOW 
 DATE: 11 25 1990              CUMULATIVE TIME STEP:      25
 MODFLOW STRESS PERIOD      3     CURRENT TIME STEP:      56     ITERATIONS:       6

 -----------------------------------------------------------------------------------

   CUMULATIVE VOLUMES               L**3   RATES FOR THIS TIME STEP           L**3/T
   ------------------                      ------------------------

                                     IN                                         IN
                                     --                                         --
        PRECIPITATION =        1009043.38          PRECIPITATION =         186542.88
           STREAMFLOW =                               STREAMFLOW =                  
     GW BOUNDARY FLOW =                         GW BOUNDARY FLOW =                  


                                    OUT                                        OUT
                                    ---                                        ---
   EVAPOTRANSPIRATION =        1214664.56     EVAPOTRANSPIRATION =           3758.15
           STREAMFLOW =         504471.94             STREAMFLOW =          10610.98
     GW BOUNDARY FLOW =           2021.12       GW BOUNDARY FLOW =             35.79

   INFLOWS - OUTFLOWS =        -712114.25     INFLOWS - OUTFLOWS =         172137.96
             --------                                   --------

 TOTAL STORAGE CHANGE =        -710356.61         STORAGE CHANGE =         172135.80
       --------------                             --------------
         LAND SURFACE =          86180.68           LAND SURFACE =          69567.13
            SOIL ZONE =         536733.79              SOIL ZONE =         114159.38
     UNSATURATED ZONE =       -1820837.88       UNSATURATED ZONE =         -17911.40
       SATURATED ZONE =         487566.81         SATURATED ZONE =           6320.68

 OVERALL BUDGET ERROR =          -1757.64           BUDGET ERROR =              2.16


  PERCENT DISCREPANCY =             -0.10    PERCENT DISCREPANCY =              0.00



1
 SUMMARY VOLUMETRIC BUDGET FOR GSFLOW 
 DATE: 12 02 1990              CUMULATIVE TIME STEP:       2
 MODFLOW STRESS PERIOD      4     CURRENT TIME STEP:      63     ITERATIONS:       6

 -----------------------------------------------------------------------------------

   CUMULATIVE VOLUMES               L**3   RATES FOR THIS TIME STEP           L**3/T
   ------------------                      ------------------------

                                     IN                                         IN
                                     --                                         --
        PRECIPITATION =        1449284.55          PRECIPITATION =                  
           STREAMFLOW =                               STREAMFLOW =                  
     GW BOUNDARY FLOW =                         GW BOUNDARY FLOW =                  


                                    OUT                                        OUT
                                    ---                                        ---
   EVAPOTRANSPIRATION =        1221160.21     EVAPOTRANSPIRATION =            234.69
           STREAMFLOW =         580564.01             STREAMFLOW =          10921.75
     GW BOUNDARY FLOW =           2271.57       GW BOUNDARY FLOW =             35.76

   INFLOWS - OUTFLOWS =        -354711.24     INFLOWS - OUTFLOWS =         -11192.20
             --------                                   --------

 TOTAL STORAGE CHANGE =        -352968.88         STORAGE CHANGE =         -11194.13
       --------------                             --------------
         LAND SURFACE =         486845.62           LAND SURFACE =           -339.04
            SOIL ZONE =         570715.11              SOIL ZONE =            234.76
     UNSATURATED ZONE =       -1943724.91       UNSATURATED ZONE =         -17261.87
       SATURATED ZONE =         533195.30         SATURATED ZONE =           6172.02

 OVERALL BUDGET ERROR =          -1742.37           BUDGET ERROR =              1.93


  PERCENT DISCREPANCY =             -0.10    PERCENT DISCREPANCY =              0.02



1
 SUMMARY VOLUMETRIC BUDGET FOR GSFLOW 
 DATE: 12 09 1990              CUMULATIVE TIME STEP:       9
 MODFLOW STRESS PERIOD      4     CURRENT TIME STEP:      70     ITERATIONS:       6

 -----------------------------------------------------------------------------------

   CUMULATIVE VOLUMES               L**3   RATES FOR THIS TIME STEP           L**3/T
   ------------------                      ------------------------

                                     IN                                         IN
                                     --                                         --
        PRECIPITATION =        1449284.55          PRECIPITATION =                  
           STREAMFLOW =                               STREAMFLOW =                  
     GW BOUNDARY FLOW =                         GW BOUNDARY FLOW =                  


                                    OUT                                        OUT
                                    ---                                        ---
   EVAPOTRANSPIRATION =        1296994.75     EVAPOTRANSPIRATION =          13848.46
           STREAMFLOW =         656687.10             STREAMFLOW =          10637.80
     GW BOUNDARY FLOW =           2521.49       GW BOUNDARY FLOW =             35.64

   INFLOWS - OUTFLOWS =        -506918.78     INFLOWS - OUTFLOWS =         -24521.90
             --------                                   --------

 TOTAL STORAGE CHANGE =        -505186.63         STORAGE CHANGE =         -24522.64
       --------------                             --------------
         LAND SURFACE =          67215.40           LAND SURFACE =         -45889.70
            SOIL ZONE =         918828.08              SOIL ZONE =          33774.28
     UNSATURATED ZONE =       -2061585.98       UNSATURATED ZONE =         -16478.36
       SATURATED ZONE =         570355.86         SATURATED ZONE =           4071.14

 OVERALL BUDGET ERROR =          -1732.15           BUDGET ERROR =              0.74


  PERCENT DISCREPANCY =             -0.09    PERCENT DISCREPANCY =              0.00



1
 SUMMARY VOLUMETRIC BUDGET FOR GSFLOW 
 DATE: 12 16 1990              CUMULATIVE TIME STEP:      16
 MODFLOW STRESS PERIOD      4     CURRENT TIME STEP:      77     ITERATIONS:       5

 -----------------------------------------------------------------------------------

   CUMULATIVE VOLUMES               L**3   RATES FOR THIS TIME STEP           L**3/T
   ------------------                      ------------------------

                                     IN                                         IN
                                     --                                         --
        PRECIPITATION =        1804962.84          PRECIPITATION =                  
           STREAMFLOW =                               STREAMFLOW =                  
     GW BOUNDARY FLOW =                         GW BOUNDARY FLOW =                  


                                    OUT                                        OUT
                                    ---                                        ---
   EVAPOTRANSPIRATION =        1325274.42     EVAPOTRANSPIRATION =                  
           STREAMFLOW =         734374.63             STREAMFLOW =          11287.20
     GW BOUNDARY FLOW =           2770.85       GW BOUNDARY FLOW =             35.60

   INFLOWS - OUTFLOWS =        -257457.07     INFLOWS - OUTFLOWS =         -11322.80
             --------                                   --------

 TOTAL STORAGE CHANGE =        -255733.79         STORAGE CHANGE =         -11323.68
       --------------                             --------------
         LAND SURFACE =         252566.26           LAND SURFACE =                  
            SOIL ZONE =        1065042.02              SOIL ZONE =            149.15
     UNSATURATED ZONE =       -2174882.87       UNSATURATED ZONE =         -15924.60
       SATURATED ZONE =         601540.80         SATURATED ZONE =           4451.77

 OVERALL BUDGET ERROR =          -1723.27           BUDGET ERROR =              0.88


  PERCENT DISCREPANCY =             -0.08    PERCENT DISCREPANCY =              0.01



1
 SUMMARY VOLUMETRIC BUDGET FOR GSFLOW 
 DATE: 12 23 1990              CUMULATIVE TIME STEP:      23
 MODFLOW STRESS PERIOD      4     CURRENT TIME STEP:      84     ITERATIONS:       6

 -----------------------------------------------------------------------------------

   CUMULATIVE VOLUMES               L**3   RATES FOR THIS TIME STEP           L**3/T
   ------------------                      ------------------------

                                     IN                                         IN
                                     --                                         --
        PRECIPITATION =        2276236.55          PRECIPITATION =                  
           STREAMFLOW =                               STREAMFLOW =                  
     GW BOUNDARY FLOW =              0.08       GW BOUNDARY FLOW =              0.04


                                    OUT                                        OUT
                                    ---                                        ---
   EVAPOTRANSPIRATION =        1326332.02     EVAPOTRANSPIRATION =                  
           STREAMFLOW =         813837.07             STREAMFLOW =          11393.08
     GW BOUNDARY FLOW =           3019.85       GW BOUNDARY FLOW =             35.57

   INFLOWS - OUTFLOWS =         133047.70     INFLOWS - OUTFLOWS =         -11428.60
             --------                                   --------

 TOTAL STORAGE CHANGE =         134770.16         STORAGE CHANGE =         -11428.44
       --------------                             --------------
         LAND SURFACE =         722784.33           LAND SURFACE =                  
            SOIL ZONE =        1066131.56              SOIL ZONE =            159.27
     UNSATURATED ZONE =       -2284097.98       UNSATURATED ZONE =         -15361.16
       SATURATED ZONE =         629952.26         SATURATED ZONE =           3773.45

 OVERALL BUDGET ERROR =          -1722.47           BUDGET ERROR =             -0.16


  PERCENT DISCREPANCY =             -0.08    PERCENT DISCREPANCY =             -0.00



1
 SUMMARY VOLUMETRIC BUDGET FOR GSFLOW 
 DATE: 12 30 1990              CUMULATIVE TIME STEP:      30
 MODFLOW STRESS PERIOD      4     CURRENT TIME STEP:      91     ITERATIONS:       5

 -----------------------------------------------------------------------------------

   CUMULATIVE VOLUMES               L**3   RATES FOR THIS TIME STEP           L**3/T
   ------------------                      ------------------------

                                     IN                                         IN
                                     --                                         --
        PRECIPITATION =        2276236.55          PRECIPITATION =                  
           STREAMFLOW =                               STREAMFLOW =                  
     GW BOUNDARY FLOW =              0.77       GW BOUNDARY FLOW =              0.14


                                    OUT                                        OUT
                                    ---                                        ---
   EVAPOTRANSPIRATION =        1326899.52     EVAPOTRANSPIRATION =                  
           STREAMFLOW =         894000.85             STREAMFLOW =          11496.73
     GW BOUNDARY FLOW =           3268.93       GW BOUNDARY FLOW =             35.59

   INFLOWS - OUTFLOWS =          52068.02     INFLOWS - OUTFLOWS =         -11532.18
             --------                                   --------

 TOTAL STORAGE CHANGE =          53798.63         STORAGE CHANGE =         -11530.00
       --------------                             --------------
         LAND SURFACE =         722216.94           LAND SURFACE =                  
            SOIL ZONE =        1067289.97              SOIL ZONE =            170.74
     UNSATURATED ZONE =       -2389408.02       UNSATURATED ZONE =         -14810.34
       SATURATED ZONE =         653699.74         SATURATED ZONE =           3109.60

 OVERALL BUDGET ERROR =          -1730.61           BUDGET ERROR =             -2.18


  PERCENT DISCREPANCY =             -0.08    PERCENT DISCREPANCY =             -0.02



1
 SUMMARY VOLUMETRIC BUDGET FOR GSFLOW 
 DATE: 01 06 1991              CUMULATIVE TIME STEP:       6
 MODFLOW STRESS PERIOD      5     CURRENT TIME STEP:      98     ITERATIONS:       5

 -----------------------------------------------------------------------------------

   CUMULATIVE VOLUMES               L**3   RATES FOR THIS TIME STEP           L**3/T
   ------------------                      ------------------------

                                     IN                                         IN
                                     --                                         --
        PRECIPITATION =        2276236.55          PRECIPITATION =                  
           STREAMFLOW =                               STREAMFLOW =                  
     GW BOUNDARY FLOW =              2.10       GW BOUNDARY FLOW =              0.22


                                    OUT                                        OUT
                                    ---                                        ---
   EVAPOTRANSPIRATION =        1354832.04     EVAPOTRANSPIRATION =           3327.36
           STREAMFLOW =         974843.77             STREAMFLOW =          11583.72
     GW BOUNDARY FLOW =           3518.79       GW BOUNDARY FLOW =             35.75

   INFLOWS - OUTFLOWS =         -56955.95     INFLOWS - OUTFLOWS =         -14946.60
             --------                                   --------

 TOTAL STORAGE CHANGE =         -55201.98         STORAGE CHANGE =         -14942.25
       --------------                             --------------
         LAND SURFACE =         585426.31           LAND SURFACE =          -8558.21
            SOIL ZONE =        1177419.78              SOIL ZONE =           5414.03
     UNSATURATED ZONE =       -2490760.36       UNSATURATED ZONE =         -14271.80
       SATURATED ZONE =         672712.29         SATURATED ZONE =           2473.73

 OVERALL BUDGET ERROR =          -1753.97           BUDGET ERROR =             -4.35


  PERCENT DISCREPANCY =             -0.08    PERCENT DISCREPANCY =             -0.03



1
 SUMMARY VOLUMETRIC BUDGET FOR GSFLOW 
 DATE: 01 13 1991              CUMULATIVE TIME STEP:      13
 MODFLOW STRESS PERIOD      5     CURRENT TIME STEP:     105     ITERATIONS:       6

 -----------------------------------------------------------------------------------

   CUMULATIVE VOLUMES               L**3   RATES FOR THIS TIME STEP           L**3/T
   ------------------                      ------------------------

                                     IN                                         IN
                                     --                                         --
        PRECIPITATION =        2596386.94          PRECIPITATION =          10327.43
           STREAMFLOW =                               STREAMFLOW =                  
     GW BOUNDARY FLOW =              4.02       GW BOUNDARY FLOW =              0.31


                                    OUT                                        OUT
                                    ---                                        ---
   EVAPOTRANSPIRATION =        1422996.64     EVAPOTRANSPIRATION =          18924.98
           STREAMFLOW =        1055912.13             STREAMFLOW =          11499.56
     GW BOUNDARY FLOW =           3768.98       GW BOUNDARY FLOW =             35.72

   INFLOWS - OUTFLOWS =         113713.21     INFLOWS - OUTFLOWS =         -20132.52
             --------                                   --------

 TOTAL STORAGE CHANGE =         115498.26         STORAGE CHANGE =         -20129.58
       --------------                             --------------
         LAND SURFACE =         517131.86           LAND SURFACE =        -134708.01
            SOIL ZONE =        1500357.09              SOIL ZONE =         127099.21
     UNSATURATED ZONE =       -2588058.31       UNSATURATED ZONE =         -13697.18
       SATURATED ZONE =         686067.62         SATURATED ZONE =           1176.39

 OVERALL BUDGET ERROR =          -1785.05           BUDGET ERROR =             -2.94


  PERCENT DISCREPANCY =             -0.07    PERCENT DISCREPANCY =             -0.01



1
 SUMMARY VOLUMETRIC BUDGET FOR GSFLOW 
 DATE: 01 20 1991              CUMULATIVE TIME STEP:      20
 MODFLOW STRESS PERIOD      5     CURRENT TIME STEP:     112     ITERATIONS:       5

 -----------------------------------------------------------------------------------

   CUMULATIVE VOLUMES               L**3   RATES FOR THIS TIME STEP           L**3/T
   ------------------                      ------------------------

                                     IN                                         IN
                                     --                                         --
        PRECIPITATION =        2596386.94          PRECIPITATION =                  
           STREAMFLOW =                               STREAMFLOW =                  
     GW BOUNDARY FLOW =              6.56       GW BOUNDARY FLOW =              0.40


                                    OUT                                        OUT
                                    ---                                        ---
   EVAPOTRANSPIRATION =        1501574.80     EVAPOTRANSPIRATION =           2597.80
           STREAMFLOW =        1137562.93             STREAMFLOW =          11700.50
     GW BOUNDARY FLOW =           4019.19       GW BOUNDARY FLOW =             35.74

   INFLOWS - OUTFLOWS =         -46763.43     INFLOWS - OUTFLOWS =         -14333.64
             --------                                   --------

 TOTAL STORAGE CHANGE =         -44932.36         STORAGE CHANGE =         -14325.88
       --------------                             --------------
         LAND SURFACE =         342485.13           LAND SURFACE =           -464.47
            SOIL ZONE =        1598420.84              SOIL ZONE =          -1910.98
     UNSATURATED ZONE =       -2681484.04       UNSATURATED ZONE =         -13121.94
       SATURATED ZONE =         695645.71         SATURATED ZONE =           1171.52

 OVERALL BUDGET ERROR =          -1831.07           BUDGET ERROR =             -7.76


  PERCENT DISCREPANCY =             -0.07    PERCENT DISCREPANCY =             -0.05



1
 SUMMARY VOLUMETRIC BUDGET FOR GSFLOW 
 DATE: 01 27 1991              CUMULATIVE TIME STEP:      27
 MODFLOW STRESS PERIOD      5     CURRENT TIME STEP:     119     ITERATIONS:       5

 -----------------------------------------------------------------------------------

   CUMULATIVE VOLUMES               L**3   RATES FOR THIS TIME STEP           L**3/T
   ------------------                      ------------------------

                                     IN                                         IN
                                     --                                         --
        PRECIPITATION =        2596386.94          PRECIPITATION =                  
           STREAMFLOW =                               STREAMFLOW =                  
     GW BOUNDARY FLOW =              9.67       GW BOUNDARY FLOW =              0.48


                                    OUT                                        OUT
                                    ---                                        ---
   EVAPOTRANSPIRATION =        1528434.71     EVAPOTRANSPIRATION =           1840.26
           STREAMFLOW =        1219696.88             STREAMFLOW =          11765.41
     GW BOUNDARY FLOW =           4269.37       GW BOUNDARY FLOW =             35.74

   INFLOWS - OUTFLOWS =        -156004.36     INFLOWS - OUTFLOWS =         -13640.92
             --------                                   --------

 TOTAL STORAGE CHANGE =        -154112.78         STORAGE CHANGE =         -13631.78
       --------------                             --------------
         LAND SURFACE =         307905.34           LAND SURFACE =           -546.58
            SOIL ZONE =        1607896.89              SOIL ZONE =          -1084.19
     UNSATURATED ZONE =       -2771388.85       UNSATURATED ZONE =         -12623.22
       SATURATED ZONE =         701473.83         SATURATED ZONE =            622.22

 OVERALL BUDGET ERROR =          -1891.57           BUDGET ERROR =             -9.14


  PERCENT DISCREPANCY =             -0.07    PERCENT DISCREPANCY =             -0.07



1
 SUMMARY VOLUMETRIC BUDGET FOR GSFLOW 
 DATE: 02 03 1991              CUMULATIVE TIME STEP:       3
 MODFLOW STRESS PERIOD      6     CURRENT TIME STEP:     126     ITERATIONS:       5

 -----------------------------------------------------------------------------------

   CUMULATIVE VOLUMES               L**3   RATES FOR THIS TIME STEP           L**3/T
   ------------------                      ------------------------

                                     IN                                         IN
                                     --                                         --
        PRECIPITATION =        3228422.31          PRECIPITATION =          30459.53
           STREAMFLOW =                               STREAMFLOW =                  
     GW BOUNDARY FLOW =             13.32       GW BOUNDARY FLOW =              0.56


                                    OUT                                        OUT
                                    ---                                        ---
   EVAPOTRANSPIRATION =        1637399.49     EVAPOTRANSPIRATION =          21777.55
           STREAMFLOW =        1302220.99             STREAMFLOW =          11816.99
     GW BOUNDARY FLOW =           4519.48       GW BOUNDARY FLOW =             35.72

   INFLOWS - OUTFLOWS =         284295.67     INFLOWS - OUTFLOWS =          -3170.17
             --------                                   --------

 TOTAL STORAGE CHANGE =         286257.01         STORAGE CHANGE =          -3159.68
       --------------                             --------------
         LAND SURFACE =         148156.03           LAND SURFACE =         -26520.09
            SOIL ZONE =        2293378.21              SOIL ZONE =          35558.05
     UNSATURATED ZONE =       -2858033.88       UNSATURATED ZONE =         -12171.27
       SATURATED ZONE =         702756.65         SATURATED ZONE =            -26.36

 OVERALL BUDGET ERROR =          -1961.34           BUDGET ERROR =            -10.50


  PERCENT DISCREPANCY =             -0.06    PERCENT DISCREPANCY =             -0.03



1
 SUMMARY VOLUMETRIC BUDGET FOR GSFLOW 
 DATE: 02 10 1991              CUMULATIVE TIME STEP:      10
 MODFLOW STRESS PERIOD      6     CURRENT TIME STEP:     133     ITERATIONS:       5

 -----------------------------------------------------------------------------------

   CUMULATIVE VOLUMES               L**3   RATES FOR THIS TIME STEP           L**3/T
   ------------------                      ------------------------

                                     IN                                         IN
                                     --                                         --
        PRECIPITATION =        3510173.01          PRECIPITATION =                  
           STREAMFLOW =                               STREAMFLOW =                  
     GW BOUNDARY FLOW =             17.50       GW BOUNDARY FLOW =              0.63


                                    OUT                                        OUT
                                    ---                                        ---
   EVAPOTRANSPIRATION =        1807095.79     EVAPOTRANSPIRATION =          25968.39
           STREAMFLOW =        1385159.45             STREAMFLOW =          11871.90
     GW BOUNDARY FLOW =           4769.48       GW BOUNDARY FLOW =             35.71

   INFLOWS - OUTFLOWS =         313165.80     INFLOWS - OUTFLOWS =         -37875.37
             --------                                   --------

 TOTAL STORAGE CHANGE =         315205.42         STORAGE CHANGE =         -37863.56
       --------------                             --------------
         LAND SURFACE =          66705.78           LAND SURFACE =          -7439.35
            SOIL ZONE =        2488734.10              SOIL ZONE =         -18263.47
     UNSATURATED ZONE =       -2941106.20       UNSATURATED ZONE =         -11664.57
       SATURATED ZONE =         700871.74         SATURATED ZONE =           -496.18

 OVERALL BUDGET ERROR =          -2039.63           BUDGET ERROR =            -11.80


  PERCENT DISCREPANCY =             -0.06    PERCENT DISCREPANCY =             -0.03



1
 SUMMARY VOLUMETRIC BUDGET FOR GSFLOW 
 DATE: 02 17 1991              CUMULATIVE TIME STEP:      17
 MODFLOW STRESS PERIOD      6     CURRENT TIME STEP:     140     ITERATIONS:       5

 -----------------------------------------------------------------------------------

   CUMULATIVE VOLUMES               L**3   RATES FOR THIS TIME STEP           L**3/T
   ------------------                      ------------------------

                                     IN                                         IN
                                     --                                         --
        PRECIPITATION =        3510173.01          PRECIPITATION =                  
           STREAMFLOW =                               STREAMFLOW =                  
     GW BOUNDARY FLOW =             22.18       GW BOUNDARY FLOW =              0.70


                                    OUT                                        OUT
                                    ---                                        ---
   EVAPOTRANSPIRATION =        2052660.39     EVAPOTRANSPIRATION =          24098.24
           STREAMFLOW =        1468431.89             STREAMFLOW =          11911.08
     GW BOUNDARY FLOW =           5019.38       GW BOUNDARY FLOW =             35.67

   INFLOWS - OUTFLOWS =         -15916.46     INFLOWS - OUTFLOWS =         -36044.30
             --------                                   --------

 TOTAL STORAGE CHANGE =         -13786.25         STORAGE CHANGE =         -36030.75
       --------------                             --------------
         LAND SURFACE =          14950.27           LAND SURFACE =           -975.14
            SOIL ZONE =        2296491.05              SOIL ZONE =         -22970.87
     UNSATURATED ZONE =       -3020479.52       UNSATURATED ZONE =         -11064.06
       SATURATED ZONE =         695251.95         SATURATED ZONE =          -1020.68

 OVERALL BUDGET ERROR =          -2130.22           BUDGET ERROR =            -13.55


  PERCENT DISCREPANCY =             -0.06    PERCENT DISCREPANCY =             -0.04



1
 SUMMARY VOLUMETRIC BUDGET FOR GSFLOW 
 DATE: 02 24 1991              CUMULATIVE TIME STEP:      24
 MODFLOW STRESS PERIOD      6     CURRENT TIME STEP:     147     ITERATIONS:       5

 -----------------------------------------------------------------------------------

   CUMULATIVE VOLUMES               L**3   RATES FOR THIS TIME STEP           L**3/T
   ------------------                      ------------------------

                                     IN                                         IN
                                     --                                         --
        PRECIPITATION =        3510173.01          PRECIPITATION =                  
           STREAMFLOW =                               STREAMFLOW =                  
     GW BOUNDARY FLOW =             27.33       GW BOUNDARY FLOW =              0.76


                                    OUT                                        OUT
                                    ---                                        ---
   EVAPOTRANSPIRATION =        2268627.99     EVAPOTRANSPIRATION =          21972.49
           STREAMFLOW =        1551929.71             STREAMFLOW =          11934.32
     GW BOUNDARY FLOW =           5268.41       GW BOUNDARY FLOW =             35.51

   INFLOWS - OUTFLOWS =        -315625.77     INFLOWS - OUTFLOWS =         -33941.55
             --------                                   --------

 TOTAL STORAGE CHANGE =        -313393.61         STORAGE CHANGE =         -33926.29
       --------------                             --------------
         LAND SURFACE =           6004.72           LAND SURFACE =           -187.76
            SOIL ZONE =        2090832.14              SOIL ZONE =         -21554.00
     UNSATURATED ZONE =       -3096351.22       UNSATURATED ZONE =         -10663.58
       SATURATED ZONE =         686120.76         SATURATED ZONE =          -1520.95

 OVERALL BUDGET ERROR =          -2232.17           BUDGET ERROR =            -15.26


  PERCENT DISCREPANCY =             -0.06    PERCENT DISCREPANCY =             -0.04



1
 SUMMARY VOLUMETRIC BUDGET FOR GSFLOW 
 DATE: 03 03 1991              CUMULATIVE TIME STEP:       3
 MODFLOW STRESS PERIOD      7     CURRENT TIME STEP:     154     ITERATIONS:       5

 -----------------------------------------------------------------------------------

   CUMULATIVE VOLUMES               L**3   RATES FOR THIS TIME STEP           L**3/T
   ------------------                      ------------------------

                                     IN                                         IN
                                     --                                         --
        PRECIPITATION =        6220189.63          PRECIPITATION =        1243187.24
           STREAMFLOW =                               STREAMFLOW =                  
     GW BOUNDARY FLOW =             32.93       GW BOUNDARY FLOW =              0.83


                                    OUT                                        OUT
                                    ---                                        ---
   EVAPOTRANSPIRATION =        2421931.68     EVAPOTRANSPIRATION =           8350.88
           STREAMFLOW =        1635087.26             STREAMFLOW =          11829.41
     GW BOUNDARY FLOW =           5516.24       GW BOUNDARY FLOW =             35.32

   INFLOWS - OUTFLOWS =        2157687.38     INFLOWS - OUTFLOWS =        1222972.46
             --------                                   --------

 TOTAL STORAGE CHANGE =        2160022.10         STORAGE CHANGE =        1222988.94
       --------------                             --------------
         LAND SURFACE =        2351702.99           LAND SURFACE =         893791.18
            SOIL ZONE =        2305829.67              SOIL ZONE =         341862.01
     UNSATURATED ZONE =       -3169180.13       UNSATURATED ZONE =         -10250.69
       SATURATED ZONE =         671669.57         SATURATED ZONE =          -2413.57

 OVERALL BUDGET ERROR =          -2334.72           BUDGET ERROR =            -16.48


  PERCENT DISCREPANCY =             -0.04    PERCENT DISCREPANCY =             -0.00



1
 SUMMARY VOLUMETRIC BUDGET FOR GSFLOW 
 DATE: 03 10 1991              CUMULATIVE TIME STEP:      10
 MODFLOW STRESS PERIOD      7     CURRENT TIME STEP:     161     ITERATIONS:       5

 -----------------------------------------------------------------------------------

   CUMULATIVE VOLUMES               L**3   RATES FOR THIS TIME STEP           L**3/T
   ------------------                      ------------------------

                                     IN                                         IN
                                     --                                         --
        PRECIPITATION =        8746030.42          PRECIPITATION =          32888.55
           STREAMFLOW =                               STREAMFLOW =                  
     GW BOUNDARY FLOW =             38.97       GW BOUNDARY FLOW =              0.89


                                    OUT                                        OUT
                                    ---                                        ---
   EVAPOTRANSPIRATION =        2486063.18     EVAPOTRANSPIRATION =           7392.50
           STREAMFLOW =        1740799.45             STREAMFLOW =          12558.59
     GW BOUNDARY FLOW =           5763.58       GW BOUNDARY FLOW =             35.23

   INFLOWS - OUTFLOWS =        4513443.18     INFLOWS - OUTFLOWS =          12903.12
             --------                                   --------

 TOTAL STORAGE CHANGE =        4515856.34         STORAGE CHANGE =          12921.24
       --------------                             --------------
         LAND SURFACE =        2489047.44           LAND SURFACE =         -20139.62
            SOIL ZONE =        4556870.28              SOIL ZONE =          36780.49
     UNSATURATED ZONE =       -3187018.03       UNSATURATED ZONE =          -1430.20
       SATURATED ZONE =         656956.65         SATURATED ZONE =          -2289.42

 OVERALL BUDGET ERROR =          -2413.16           BUDGET ERROR =            -18.12


  PERCENT DISCREPANCY =             -0.03    PERCENT DISCREPANCY =             -0.06



1
 SUMMARY VOLUMETRIC BUDGET FOR GSFLOW 
 DATE: 03 17 1991              CUMULATIVE TIME STEP:      17
 MODFLOW STRESS PERIOD      7     CURRENT TIME STEP:     168     ITERATIONS:       5

 -----------------------------------------------------------------------------------

   CUMULATIVE VOLUMES               L**3   RATES FOR THIS TIME STEP           L**3/T
   ------------------                      ------------------------

                                     IN                                         IN
                                     --                                         --
        PRECIPITATION =        9897129.71          PRECIPITATION =         157865.04
           STREAMFLOW =                               STREAMFLOW =                  
     GW BOUNDARY FLOW =             45.43       GW BOUNDARY FLOW =              0.95


                                    OUT                                        OUT
                                    ---                                        ---
   EVAPOTRANSPIRATION =        2509529.22     EVAPOTRANSPIRATION =           6885.28
           STREAMFLOW =        1830029.96             STREAMFLOW =          12803.72
     GW BOUNDARY FLOW =           6009.76       GW BOUNDARY FLOW =             35.11

   INFLOWS - OUTFLOWS =        5551606.21     INFLOWS - OUTFLOWS =         138141.89
             --------                                   --------

 TOTAL STORAGE CHANGE =        5554130.53         STORAGE CHANGE =         138161.27
       --------------                             --------------
         LAND SURFACE =        3616636.02           LAND SURFACE =         151296.14
            SOIL ZONE =        4495186.65              SOIL ZONE =          -8447.93
     UNSATURATED ZONE =       -3198781.50       UNSATURATED ZONE =          -2100.42
       SATURATED ZONE =         641089.36         SATURATED ZONE =          -2586.51

 OVERALL BUDGET ERROR =          -2524.33           BUDGET ERROR =            -19.38


  PERCENT DISCREPANCY =             -0.03    PERCENT DISCREPANCY =             -0.01



1
 SUMMARY VOLUMETRIC BUDGET FOR GSFLOW 
 DATE: 03 24 1991              CUMULATIVE TIME STEP:      24
 MODFLOW STRESS PERIOD      7     CURRENT TIME STEP:     175     ITERATIONS:       5

 -----------------------------------------------------------------------------------

   CUMULATIVE VOLUMES               L**3   RATES FOR THIS TIME STEP           L**3/T
   ------------------                      ------------------------

                                     IN                                         IN
                                     --                                         --
        PRECIPITATION =        1.1673D+07          PRECIPITATION =        1230031.83
           STREAMFLOW =                               STREAMFLOW =                  
     GW BOUNDARY FLOW =             52.30       GW BOUNDARY FLOW =              1.01


                                    OUT                                        OUT
                                    ---                                        ---
   EVAPOTRANSPIRATION =        2544164.45     EVAPOTRANSPIRATION =           4289.46
           STREAMFLOW =        1921229.48             STREAMFLOW =          13198.82
     GW BOUNDARY FLOW =           6255.06       GW BOUNDARY FLOW =             35.00

   INFLOWS - OUTFLOWS =        7201514.81     INFLOWS - OUTFLOWS =        1212509.57
             --------                                   --------

 TOTAL STORAGE CHANGE =        7204154.69         STORAGE CHANGE =        1212529.24
       --------------                             --------------
         LAND SURFACE =        5346769.67           LAND SURFACE =        1227877.70
            SOIL ZONE =        4448898.61              SOIL ZONE =         -10335.05
     UNSATURATED ZONE =       -3214650.74       UNSATURATED ZONE =          -2406.74
       SATURATED ZONE =         623137.14         SATURATED ZONE =          -2606.66

 OVERALL BUDGET ERROR =          -2639.87           BUDGET ERROR =            -19.67


  PERCENT DISCREPANCY =             -0.02    PERCENT DISCREPANCY =             -0.00



1
 SUMMARY VOLUMETRIC BUDGET FOR GSFLOW 
 DATE: 03 31 1991              CUMULATIVE TIME STEP:      31
 MODFLOW STRESS PERIOD      7     CURRENT TIME STEP:     182     ITERATIONS:       5

 -----------------------------------------------------------------------------------

   CUMULATIVE VOLUMES               L**3   RATES FOR THIS TIME STEP           L**3/T
   ------------------                      ------------------------

                                     IN                                         IN
                                     --                                         --
        PRECIPITATION =        1.2495D+07          PRECIPITATION =                  
           STREAMFLOW =                               STREAMFLOW =                  
     GW BOUNDARY FLOW =             59.57       GW BOUNDARY FLOW =              1.06


                                    OUT                                        OUT
                                    ---                                        ---
   EVAPOTRANSPIRATION =        2665183.31     EVAPOTRANSPIRATION =          47925.31
           STREAMFLOW =        2016319.75             STREAMFLOW =          14252.59
     GW BOUNDARY FLOW =           6499.67       GW BOUNDARY FLOW =             34.92

   INFLOWS - OUTFLOWS =        7807382.12     INFLOWS - OUTFLOWS =         -62211.76
             --------                                   --------

 TOTAL STORAGE CHANGE =        7810161.87         STORAGE CHANGE =         -62191.50
       --------------                             --------------
         LAND SURFACE =        5891403.37           LAND SURFACE =        -150773.77
            SOIL ZONE =        4544619.33              SOIL ZONE =          92468.20
     UNSATURATED ZONE =       -3230299.45       UNSATURATED ZONE =          -1187.31
       SATURATED ZONE =         604438.62         SATURATED ZONE =          -2698.63

 OVERALL BUDGET ERROR =          -2779.74           BUDGET ERROR =            -20.26


  PERCENT DISCREPANCY =             -0.02    PERCENT DISCREPANCY =             -0.03



1
 SUMMARY VOLUMETRIC BUDGET FOR GSFLOW 
 DATE: 04 07 1991              CUMULATIVE TIME STEP:       7
 MODFLOW STRESS PERIOD      8     CURRENT TIME STEP:     189     ITERATIONS:       5

 -----------------------------------------------------------------------------------

   CUMULATIVE VOLUMES               L**3   RATES FOR THIS TIME STEP           L**3/T
   ------------------                      ------------------------

                                     IN                                         IN
                                     --                                         --
        PRECIPITATION =        1.3018D+07          PRECIPITATION =                  
           STREAMFLOW =                               STREAMFLOW =                  
     GW BOUNDARY FLOW =             67.21       GW BOUNDARY FLOW =              1.11


                                    OUT                                        OUT
                                    ---                                        ---
   EVAPOTRANSPIRATION =        2973066.58     EVAPOTRANSPIRATION =          15898.60
           STREAMFLOW =        2244822.57             STREAMFLOW =          42470.04
     GW BOUNDARY FLOW =           6745.76       GW BOUNDARY FLOW =             35.32

   INFLOWS - OUTFLOWS =        7793169.03     INFLOWS - OUTFLOWS =         -58402.85
             --------                                   --------

 TOTAL STORAGE CHANGE =        7796041.02         STORAGE CHANGE =         -58384.49
       --------------                             --------------
         LAND SURFACE =        4251813.71           LAND SURFACE =         -72897.15
            SOIL ZONE =        6152190.69              SOIL ZONE =           5387.56
     UNSATURATED ZONE =       -3195687.73       UNSATURATED ZONE =          11032.81
       SATURATED ZONE =         587724.35         SATURATED ZONE =          -1907.71

 OVERALL BUDGET ERROR =          -2871.99           BUDGET ERROR =            -18.36


  PERCENT DISCREPANCY =             -0.02    PERCENT DISCREPANCY =             -0.03



1
 SUMMARY VOLUMETRIC BUDGET FOR GSFLOW 
 DATE: 04 14 1991              CUMULATIVE TIME STEP:      14
 MODFLOW STRESS PERIOD      8     CURRENT TIME STEP:     196     ITERATIONS:      10

 -----------------------------------------------------------------------------------

   CUMULATIVE VOLUMES               L**3   RATES FOR THIS TIME STEP           L**3/T
   ------------------                      ------------------------

                                     IN                                         IN
                                     --                                         --
        PRECIPITATION =        1.3018D+07          PRECIPITATION =                  
           STREAMFLOW =                               STREAMFLOW =                  
     GW BOUNDARY FLOW =             75.17       GW BOUNDARY FLOW =              1.16


                                    OUT                                        OUT
                                    ---                                        ---
   EVAPOTRANSPIRATION =        3156989.41     EVAPOTRANSPIRATION =          42060.22
           STREAMFLOW =        2672012.20             STREAMFLOW =          74173.98
     GW BOUNDARY FLOW =           6994.16       GW BOUNDARY FLOW =             35.60

   INFLOWS - OUTFLOWS =        7181816.14     INFLOWS - OUTFLOWS =        -116268.64
             --------                                   --------

 TOTAL STORAGE CHANGE =        7184720.49         STORAGE CHANGE =        -116268.01
       --------------                             --------------
         LAND SURFACE =        3591590.23           LAND SURFACE =        -191145.76
            SOIL ZONE =        6136890.85              SOIL ZONE =          65845.62
     UNSATURATED ZONE =       -3121787.12       UNSATURATED ZONE =          10062.92
       SATURATED ZONE =         578026.53         SATURATED ZONE =          -1030.79

 OVERALL BUDGET ERROR =          -2904.35           BUDGET ERROR =             -0.63


  PERCENT DISCREPANCY =             -0.02    PERCENT DISCREPANCY =             -0.00



1
 SUMMARY VOLUMETRIC BUDGET FOR GSFLOW 
 DATE: 04 21 1991              CUMULATIVE TIME STEP:      21
 MODFLOW STRESS PERIOD      8     CURRENT TIME STEP:     203     ITERATIONS:       9

 -----------------------------------------------------------------------------------

   CUMULATIVE VOLUMES               L**3   RATES FOR THIS TIME STEP           L**3/T
   ------------------                      ------------------------

                                     IN                                         IN
                                     --                                         --
        PRECIPITATION =        1.3034D+07          PRECIPITATION =                  
           STREAMFLOW =                               STREAMFLOW =                  
     GW BOUNDARY FLOW =             83.43       GW BOUNDARY FLOW =              1.20


                                    OUT                                        OUT
                                    ---                                        ---
   EVAPOTRANSPIRATION =        3410610.41     EVAPOTRANSPIRATION =          46843.68
           STREAMFLOW =        3223673.31             STREAMFLOW =          90948.34
     GW BOUNDARY FLOW =           7243.23       GW BOUNDARY FLOW =             35.67

   INFLOWS - OUTFLOWS =        6392618.58     INFLOWS - OUTFLOWS =        -137826.49
             --------                                   --------

 TOTAL STORAGE CHANGE =        6395535.31         STORAGE CHANGE =        -137825.55
       --------------                             --------------
         LAND SURFACE =        2434217.80           LAND SURFACE =        -213914.38
            SOIL ZONE =        6435291.20              SOIL ZONE =          64595.69
     UNSATURATED ZONE =       -3048213.68       UNSATURATED ZONE =          12024.54
       SATURATED ZONE =         574239.99         SATURATED ZONE =           -531.40

 OVERALL BUDGET ERROR =          -2916.73           BUDGET ERROR =             -0.95


  PERCENT DISCREPANCY =             -0.02    PERCENT DISCREPANCY =             -0.00



1
 SUMMARY VOLUMETRIC BUDGET FOR GSFLOW 
 DATE: 04 28 1991              CUMULATIVE TIME STEP:      28
 MODFLOW STRESS PERIOD      8     CURRENT TIME STEP:     210     ITERATIONS:       6

 -----------------------------------------------------------------------------------

   CUMULATIVE VOLUMES               L**3   RATES FOR THIS TIME STEP           L**3/T
   ------------------                      ------------------------

                                     IN                                         IN
                                     --                                         --
        PRECIPITATION =        1.3303D+07          PRECIPITATION =                  
           STREAMFLOW =                               STREAMFLOW =                  
     GW BOUNDARY FLOW =             91.97       GW BOUNDARY FLOW =              1.24


                                    OUT                                        OUT
                                    ---                                        ---
   EVAPOTRANSPIRATION =        3678712.37     EVAPOTRANSPIRATION =          58070.50
           STREAMFLOW =        3872475.29             STREAMFLOW =          92603.70
     GW BOUNDARY FLOW =           7492.60       GW BOUNDARY FLOW =             35.58

   INFLOWS - OUTFLOWS =        5744842.22     INFLOWS - OUTFLOWS =        -150708.53
             --------                                   --------

 TOTAL STORAGE CHANGE =        5747770.78         STORAGE CHANGE =        -150706.75
       --------------                             --------------
         LAND SURFACE =        1695739.94           LAND SURFACE =        -133853.69
            SOIL ZONE =        6443100.98              SOIL ZONE =         -28075.13
     UNSATURATED ZONE =       -2964155.30       UNSATURATED ZONE =          11447.45
       SATURATED ZONE =         573085.17         SATURATED ZONE =           -225.38

 OVERALL BUDGET ERROR =          -2928.57           BUDGET ERROR =             -1.78


  PERCENT DISCREPANCY =             -0.02    PERCENT DISCREPANCY =             -0.00



1
 SUMMARY VOLUMETRIC BUDGET FOR GSFLOW 
 DATE: 05 05 1991              CUMULATIVE TIME STEP:       5
 MODFLOW STRESS PERIOD      9     CURRENT TIME STEP:     217     ITERATIONS:       7

 -----------------------------------------------------------------------------------

   CUMULATIVE VOLUMES               L**3   RATES FOR THIS TIME STEP           L**3/T
   ------------------                      ------------------------

                                     IN                                         IN
                                     --                                         --
        PRECIPITATION =        1.3510D+07          PRECIPITATION =                  
           STREAMFLOW =                               STREAMFLOW =                  
     GW BOUNDARY FLOW =            100.76       GW BOUNDARY FLOW =              1.27


                                    OUT                                        OUT
                                    ---                                        ---
   EVAPOTRANSPIRATION =        4055470.14     EVAPOTRANSPIRATION =          90182.26
           STREAMFLOW =        4445849.38             STREAMFLOW =          83305.95
     GW BOUNDARY FLOW =           7740.30       GW BOUNDARY FLOW =             35.33

   INFLOWS - OUTFLOWS =        5000749.08     INFLOWS - OUTFLOWS =        -173522.26
             --------                                   --------

 TOTAL STORAGE CHANGE =        5003684.59         STORAGE CHANGE =        -173521.55
       --------------                             --------------
         LAND SURFACE =        1002109.78           LAND SURFACE =        -146974.22
            SOIL ZONE =        6322008.04              SOIL ZONE =         -36510.75
     UNSATURATED ZONE =       -2892441.67       UNSATURATED ZONE =          10057.81
       SATURATED ZONE =         572008.44         SATURATED ZONE =            -94.39

 OVERALL BUDGET ERROR =          -2935.51           BUDGET ERROR =             -0.71


  PERCENT DISCREPANCY =             -0.02    PERCENT DISCREPANCY =             -0.00



1
 SUMMARY VOLUMETRIC BUDGET FOR GSFLOW 
 DATE: 05 12 1991              CUMULATIVE TIME STEP:      12
 MODFLOW STRESS PERIOD      9     CURRENT TIME STEP:     224     ITERATIONS:       7

 -----------------------------------------------------------------------------------

   CUMULATIVE VOLUMES               L**3   RATES FOR THIS TIME STEP           L**3/T
   ------------------                      ------------------------

                                     IN                                         IN
                                     --                                         --
        PRECIPITATION =        1.4029D+07          PRECIPITATION =                  
           STREAMFLOW =                               STREAMFLOW =                  
     GW BOUNDARY FLOW =            109.83       GW BOUNDARY FLOW =              1.31


                                    OUT                                        OUT
                                    ---                                        ---
   EVAPOTRANSPIRATION =        4450857.41     EVAPOTRANSPIRATION =          68750.33
           STREAMFLOW =        4983664.54             STREAMFLOW =          85737.30
     GW BOUNDARY FLOW =           7986.36       GW BOUNDARY FLOW =             35.17

   INFLOWS - OUTFLOWS =        4586823.69     INFLOWS - OUTFLOWS =        -154521.48
             --------                                   --------

 TOTAL STORAGE CHANGE =        4589762.86         STORAGE CHANGE =        -154520.97
       --------------                             --------------
         LAND SURFACE =         552940.03           LAND SURFACE =        -203826.15
            SOIL ZONE =        6294507.33              SOIL ZONE =          40559.50
     UNSATURATED ZONE =       -2830742.00       UNSATURATED ZONE =           8721.06
       SATURATED ZONE =         573057.49         SATURATED ZONE =             24.62

 OVERALL BUDGET ERROR =          -2939.17           BUDGET ERROR =             -0.51


  PERCENT DISCREPANCY =             -0.02    PERCENT DISCREPANCY =             -0.00



1
 SUMMARY VOLUMETRIC BUDGET FOR GSFLOW 
 DATE: 05 19 1991              CUMULATIVE TIME STEP:      19
 MODFLOW STRESS PERIOD      9     CURRENT TIME STEP:     231     ITERATIONS:       7

 -----------------------------------------------------------------------------------

   CUMULATIVE VOLUMES               L**3   RATES FOR THIS TIME STEP           L**3/T
   ------------------                      ------------------------

                                     IN                                         IN
                                     --                                         --
        PRECIPITATION =        1.4365D+07          PRECIPITATION =                  
           STREAMFLOW =                               STREAMFLOW =                  
     GW BOUNDARY FLOW =            119.17       GW BOUNDARY FLOW =              1.35


                                    OUT                                        OUT
                                    ---                                        ---
   EVAPOTRANSPIRATION =        4889293.11     EVAPOTRANSPIRATION =          20369.32
           STREAMFLOW =        5432001.73             STREAMFLOW =          55434.73
     GW BOUNDARY FLOW =           8230.12       GW BOUNDARY FLOW =             34.65

   INFLOWS - OUTFLOWS =        4035972.52     INFLOWS - OUTFLOWS =         -75837.35
             --------                                   --------

 TOTAL STORAGE CHANGE =        4038913.25         STORAGE CHANGE =         -75837.58
       --------------                             --------------
         LAND SURFACE =         218149.54           LAND SURFACE =         -22216.91
            SOIL ZONE =        6029482.58              SOIL ZONE =         -59314.04
     UNSATURATED ZONE =       -2782436.76       UNSATURATED ZONE =           5524.70
       SATURATED ZONE =         573717.89         SATURATED ZONE =            168.67

 OVERALL BUDGET ERROR =          -2940.73           BUDGET ERROR =              0.23


  PERCENT DISCREPANCY =             -0.02    PERCENT DISCREPANCY =              0.00



1
 SUMMARY VOLUMETRIC BUDGET FOR GSFLOW 
 DATE: 05 26 1991              CUMULATIVE TIME STEP:      26
 MODFLOW STRESS PERIOD      9     CURRENT TIME STEP:     238     ITERATIONS:       6

 -----------------------------------------------------------------------------------

   CUMULATIVE VOLUMES               L**3   RATES FOR THIS TIME STEP           L**3/T
   ------------------                      ------------------------

                                     IN                                         IN
                                     --                                         --
        PRECIPITATION =        1.4426D+07          PRECIPITATION =                  
           STREAMFLOW =                               STREAMFLOW =                  
     GW BOUNDARY FLOW =            128.78       GW BOUNDARY FLOW =              1.39


                                    OUT                                        OUT
                                    ---                                        ---
   EVAPOTRANSPIRATION =        5573769.34     EVAPOTRANSPIRATION =          76940.71
           STREAMFLOW =        5737412.89             STREAMFLOW =          31263.10
     GW BOUNDARY FLOW =           8470.79       GW BOUNDARY FLOW =             34.13

   INFLOWS - OUTFLOWS =        3106973.37     INFLOWS - OUTFLOWS =        -108236.55
             --------                                   --------

 TOTAL STORAGE CHANGE =        3109913.77         STORAGE CHANGE =        -108235.38
       --------------                             --------------
         LAND SURFACE =          51489.46           LAND SURFACE =          -7681.82
            SOIL ZONE =        5247933.12              SOIL ZONE =         -99886.62
     UNSATURATED ZONE =       -2761604.60       UNSATURATED ZONE =            -41.33
       SATURATED ZONE =         572095.79         SATURATED ZONE =           -625.60

 OVERALL BUDGET ERROR =          -2940.40           BUDGET ERROR =             -1.17


  PERCENT DISCREPANCY =             -0.02    PERCENT DISCREPANCY =             -0.00



1
 SUMMARY VOLUMETRIC BUDGET FOR GSFLOW 
 DATE: 06 02 1991              CUMULATIVE TIME STEP:       2
 MODFLOW STRESS PERIOD     10     CURRENT TIME STEP:     245     ITERATIONS:       6

 -----------------------------------------------------------------------------------

   CUMULATIVE VOLUMES               L**3   RATES FOR THIS TIME STEP           L**3/T
   ------------------                      ------------------------

                                     IN                                         IN
                                     --                                         --
        PRECIPITATION =        1.4671D+07          PRECIPITATION =                  
           STREAMFLOW =                               STREAMFLOW =                  
     GW BOUNDARY FLOW =            138.69       GW BOUNDARY FLOW =              1.43


                                    OUT                                        OUT
                                    ---                                        ---
   EVAPOTRANSPIRATION =        6162580.33     EVAPOTRANSPIRATION =         127630.39
           STREAMFLOW =        5948344.96             STREAMFLOW =          25784.43
     GW BOUNDARY FLOW =           8708.90       GW BOUNDARY FLOW =             33.88

   INFLOWS - OUTFLOWS =        2551479.29     INFLOWS - OUTFLOWS =        -153447.26
             --------                                   --------

 TOTAL STORAGE CHANGE =        2554440.02         STORAGE CHANGE =        -153443.89
       --------------                             --------------
         LAND SURFACE =          18303.27           LAND SURFACE =          -3905.85
            SOIL ZONE =        4746006.38              SOIL ZONE =        -145281.73
     UNSATURATED ZONE =       -2775520.37       UNSATURATED ZONE =          -3111.29
       SATURATED ZONE =         565650.74         SATURATED ZONE =          -1145.02

 OVERALL BUDGET ERROR =          -2960.73           BUDGET ERROR =             -3.37


  PERCENT DISCREPANCY =             -0.02    PERCENT DISCREPANCY =             -0.00



1
 SUMMARY VOLUMETRIC BUDGET FOR GSFLOW 
 DATE: 06 09 1991              CUMULATIVE TIME STEP:       9
 MODFLOW STRESS PERIOD     10     CURRENT TIME STEP:     252     ITERATIONS:       7

 -----------------------------------------------------------------------------------

   CUMULATIVE VOLUMES               L**3   RATES FOR THIS TIME STEP           L**3/T
   ------------------                      ------------------------

                                     IN                                         IN
                                     --                                         --
        PRECIPITATION =        1.4671D+07          PRECIPITATION =                  
           STREAMFLOW =                               STREAMFLOW =                  
     GW BOUNDARY FLOW =            148.88       GW BOUNDARY FLOW =              1.47


                                    OUT                                        OUT
                                    ---                                        ---
   EVAPOTRANSPIRATION =        6951478.81     EVAPOTRANSPIRATION =         172555.02
           STREAMFLOW =        6099680.34             STREAMFLOW =          18776.51
     GW BOUNDARY FLOW =           8944.86       GW BOUNDARY FLOW =             33.59

   INFLOWS - OUTFLOWS =        1611019.68     INFLOWS - OUTFLOWS =        -191363.65
             --------                                   --------

 TOTAL STORAGE CHANGE =        1614021.69         STORAGE CHANGE =        -191357.16
       --------------                             --------------
         LAND SURFACE =           3416.58           LAND SURFACE =          -2018.47
            SOIL ZONE =        3869245.75              SOIL ZONE =        -180585.46
     UNSATURATED ZONE =       -2811845.65       UNSATURATED ZONE =          -6349.96
       SATURATED ZONE =         553205.01         SATURATED ZONE =          -2403.26

 OVERALL BUDGET ERROR =          -3002.01           BUDGET ERROR =             -6.48


  PERCENT DISCREPANCY =             -0.02    PERCENT DISCREPANCY =             -0.00



1
 SUMMARY VOLUMETRIC BUDGET FOR GSFLOW 
 DATE: 06 16 1991              CUMULATIVE TIME STEP:      16
 MODFLOW STRESS PERIOD     10     CURRENT TIME STEP:     259     ITERATIONS:       6

 -----------------------------------------------------------------------------------

   CUMULATIVE VOLUMES               L**3   RATES FOR THIS TIME STEP           L**3/T
   ------------------                      ------------------------

                                     IN                                         IN
                                     --                                         --
        PRECIPITATION =        1.4671D+07          PRECIPITATION =                  
           STREAMFLOW =                               STREAMFLOW =                  
     GW BOUNDARY FLOW =            159.36       GW BOUNDARY FLOW =              1.51


                                    OUT                                        OUT
                                    ---                                        ---
   EVAPOTRANSPIRATION =        7968556.39     EVAPOTRANSPIRATION =         117053.72
           STREAMFLOW =        6217945.00             STREAMFLOW =          16326.76
     GW BOUNDARY FLOW =           9179.09       GW BOUNDARY FLOW =             33.38

   INFLOWS - OUTFLOWS =         475453.69     INFLOWS - OUTFLOWS =        -133412.35
             --------                                   --------

 TOTAL STORAGE CHANGE =         478521.68         STORAGE CHANGE =        -133401.23
       --------------                             --------------
         LAND SURFACE =             89.42           LAND SURFACE =            -43.13
            SOIL ZONE =        2843957.25              SOIL ZONE =        -113375.30
     UNSATURATED ZONE =       -2896921.10       UNSATURATED ZONE =         -16099.30
       SATURATED ZONE =         531396.11         SATURATED ZONE =          -3883.50

 OVERALL BUDGET ERROR =          -3067.99           BUDGET ERROR =            -11.12


  PERCENT DISCREPANCY =             -0.02    PERCENT DISCREPANCY =             -0.01



1
 SUMMARY VOLUMETRIC BUDGET FOR GSFLOW 
 DATE: 06 23 1991              CUMULATIVE TIME STEP:      23
 MODFLOW STRESS PERIOD     10     CURRENT TIME STEP:     266     ITERATIONS:       5

 -----------------------------------------------------------------------------------

   CUMULATIVE VOLUMES               L**3   RATES FOR THIS TIME STEP           L**3/T
   ------------------                      ------------------------

                                     IN                                         IN
                                     --                                         --
        PRECIPITATION =        1.4671D+07          PRECIPITATION =                  
           STREAMFLOW =                               STREAMFLOW =                  
     GW BOUNDARY FLOW =            169.93       GW BOUNDARY FLOW =              1.48


                                    OUT                                        OUT
                                    ---                                        ---
   EVAPOTRANSPIRATION =        8512173.15     EVAPOTRANSPIRATION =          39003.47
           STREAMFLOW =        6328571.99             STREAMFLOW =          15506.94
     GW BOUNDARY FLOW =           9412.11       GW BOUNDARY FLOW =             33.22

   INFLOWS - OUTFLOWS =        -179012.51     INFLOWS - OUTFLOWS =         -54542.15
             --------                                   --------

 TOTAL STORAGE CHANGE =        -175852.93         STORAGE CHANGE =         -54520.57
       --------------                             --------------
         LAND SURFACE =             10.53           LAND SURFACE =             -3.38
            SOIL ZONE =        2336746.65              SOIL ZONE =         -35965.31
     UNSATURATED ZONE =       -3009454.94       UNSATURATED ZONE =         -13139.05
       SATURATED ZONE =         496844.83         SATURATED ZONE =          -5412.83

 OVERALL BUDGET ERROR =          -3159.58           BUDGET ERROR =            -21.59


  PERCENT DISCREPANCY =             -0.02    PERCENT DISCREPANCY =             -0.04



1
 SUMMARY VOLUMETRIC BUDGET FOR GSFLOW 
 DATE: 06 30 1991              CUMULATIVE TIME STEP:      30
 MODFLOW STRESS PERIOD     10     CURRENT TIME STEP:     273     ITERATIONS:       5

 -----------------------------------------------------------------------------------

   CUMULATIVE VOLUMES               L**3   RATES FOR THIS TIME STEP           L**3/T
   ------------------                      ------------------------

                                     IN                                         IN
[...]
   ------------------                      ------------------------

                                     IN                                         IN
                                     --                                         --
        PRECIPITATION =        2.4013D+08          PRECIPITATION =                  
           STREAMFLOW =                               STREAMFLOW =                  
     GW BOUNDARY FLOW =          14854.08       GW BOUNDARY FLOW =              6.14


                                    OUT                                        OUT
                                    ---                                        ---
   EVAPOTRANSPIRATION =        1.4355D+08     EVAPOTRANSPIRATION =          27627.04
           STREAMFLOW =        1.2075D+08             STREAMFLOW =           6419.81
     GW BOUNDARY FLOW =          95675.38       GW BOUNDARY FLOW =             22.28

   INFLOWS - OUTFLOWS =       -2.4255D+07     INFLOWS - OUTFLOWS =         -34062.98
             --------                                   --------

 TOTAL STORAGE CHANGE =       -2.4240D+07         STORAGE CHANGE =         -34063.52
       --------------                             --------------
         LAND SURFACE =          31152.71           LAND SURFACE =         -27523.93
            SOIL ZONE =        -202491.91              SOIL ZONE =            -60.48
     UNSATURATED ZONE =         451723.03       UNSATURATED ZONE =          -1596.88
       SATURATED ZONE =       -2.4520D+07         SATURATED ZONE =          -4882.23

 OVERALL BUDGET ERROR =         -15175.19           BUDGET ERROR =              0.54


  PERCENT DISCREPANCY =             -0.01    PERCENT DISCREPANCY =              0.00



1
 SUMMARY VOLUMETRIC BUDGET FOR GSFLOW 
 DATE: 09 10 2000              CUMULATIVE TIME STEP:      10
 MODFLOW STRESS PERIOD    121     CURRENT TIME STEP:    3633     ITERATIONS:      13

 -----------------------------------------------------------------------------------

   CUMULATIVE VOLUMES               L**3   RATES FOR THIS TIME STEP           L**3/T
   ------------------                      ------------------------

                                     IN                                         IN
                                     --                                         --
        PRECIPITATION =        2.4013D+08          PRECIPITATION =                  
           STREAMFLOW =                               STREAMFLOW =                  
     GW BOUNDARY FLOW =          14897.07       GW BOUNDARY FLOW =              6.14


                                    OUT                                        OUT
                                    ---                                        ---
   EVAPOTRANSPIRATION =        1.4364D+08     EVAPOTRANSPIRATION =           8571.73
           STREAMFLOW =        1.2078D+08             STREAMFLOW =           4317.93
     GW BOUNDARY FLOW =          95829.93       GW BOUNDARY FLOW =             22.05

   INFLOWS - OUTFLOWS =       -2.4375D+07     INFLOWS - OUTFLOWS =         -12905.57
             --------                                   --------

 TOTAL STORAGE CHANGE =       -2.4359D+07         STORAGE CHANGE =         -12904.86
       --------------                             --------------
         LAND SURFACE =                             LAND SURFACE =                  
            SOIL ZONE =        -218725.19              SOIL ZONE =          -2399.86
     UNSATURATED ZONE =         440191.86       UNSATURATED ZONE =          -1618.96
       SATURATED ZONE =       -2.4581D+07         SATURATED ZONE =          -8886.04

 OVERALL BUDGET ERROR =         -15185.05           BUDGET ERROR =             -0.71


  PERCENT DISCREPANCY =             -0.01    PERCENT DISCREPANCY =             -0.01



1
 SUMMARY VOLUMETRIC BUDGET FOR GSFLOW 
 DATE: 09 17 2000              CUMULATIVE TIME STEP:      17
 MODFLOW STRESS PERIOD    121     CURRENT TIME STEP:    3640     ITERATIONS:       7

 -----------------------------------------------------------------------------------

   CUMULATIVE VOLUMES               L**3   RATES FOR THIS TIME STEP           L**3/T
   ------------------                      ------------------------

                                     IN                                         IN
                                     --                                         --
        PRECIPITATION =        2.4013D+08          PRECIPITATION =                  
           STREAMFLOW =                               STREAMFLOW =                  
     GW BOUNDARY FLOW =          14940.10       GW BOUNDARY FLOW =              6.15


                                    OUT                                        OUT
                                    ---                                        ---
   EVAPOTRANSPIRATION =        1.4371D+08     EVAPOTRANSPIRATION =           9860.96
           STREAMFLOW =        1.2081D+08             STREAMFLOW =           4040.24
     GW BOUNDARY FLOW =          95983.84       GW BOUNDARY FLOW =             22.00

   INFLOWS - OUTFLOWS =       -2.4476D+07     INFLOWS - OUTFLOWS =         -13917.05
             --------                                   --------

 TOTAL STORAGE CHANGE =       -2.4461D+07         STORAGE CHANGE =         -13915.68
       --------------                             --------------
         LAND SURFACE =                             LAND SURFACE =                  
            SOIL ZONE =        -237856.98              SOIL ZONE =          -2392.53
     UNSATURATED ZONE =         428752.78       UNSATURATED ZONE =          -1629.08
       SATURATED ZONE =       -2.4651D+07         SATURATED ZONE =          -9894.06

 OVERALL BUDGET ERROR =         -15187.56           BUDGET ERROR =             -1.37


  PERCENT DISCREPANCY =             -0.01    PERCENT DISCREPANCY =             -0.01



1
 SUMMARY VOLUMETRIC BUDGET FOR GSFLOW 
 DATE: 09 24 2000              CUMULATIVE TIME STEP:      24
 MODFLOW STRESS PERIOD    121     CURRENT TIME STEP:    3647     ITERATIONS:       6

 -----------------------------------------------------------------------------------

   CUMULATIVE VOLUMES               L**3   RATES FOR THIS TIME STEP           L**3/T
   ------------------                      ------------------------

                                     IN                                         IN
                                     --                                         --
        PRECIPITATION =        2.4013D+08          PRECIPITATION =                  
           STREAMFLOW =                               STREAMFLOW =                  
     GW BOUNDARY FLOW =          14983.19       GW BOUNDARY FLOW =              6.16


                                    OUT                                        OUT
                                    ---                                        ---
   EVAPOTRANSPIRATION =        1.4377D+08     EVAPOTRANSPIRATION =           5096.83
           STREAMFLOW =        1.2084D+08             STREAMFLOW =           5198.46
     GW BOUNDARY FLOW =          96138.14       GW BOUNDARY FLOW =             22.13

   INFLOWS - OUTFLOWS =       -2.4561D+07     INFLOWS - OUTFLOWS =         -10311.26
             --------                                   --------

 TOTAL STORAGE CHANGE =       -2.4546D+07         STORAGE CHANGE =         -10310.29
       --------------                             --------------
         LAND SURFACE =                             LAND SURFACE =                  
            SOIL ZONE =        -250065.91              SOIL ZONE =          -1056.16
     UNSATURATED ZONE =         417742.46       UNSATURATED ZONE =          -1513.77
       SATURATED ZONE =       -2.4714D+07         SATURATED ZONE =          -7740.37

 OVERALL BUDGET ERROR =         -15193.97           BUDGET ERROR =             -0.97


  PERCENT DISCREPANCY =             -0.01    PERCENT DISCREPANCY =             -0.01



1
 SUMMARY VOLUMETRIC BUDGET FOR GSFLOW 
 DATE: 10 01 2000              CUMULATIVE TIME STEP:       1
 MODFLOW STRESS PERIOD    122     CURRENT TIME STEP:    3654     ITERATIONS:       7

 -----------------------------------------------------------------------------------

   CUMULATIVE VOLUMES               L**3   RATES FOR THIS TIME STEP           L**3/T
   ------------------                      ------------------------

                                     IN                                         IN
                                     --                                         --
        PRECIPITATION =        2.4013D+08          PRECIPITATION =                  
           STREAMFLOW =                               STREAMFLOW =                  
     GW BOUNDARY FLOW =          15026.32       GW BOUNDARY FLOW =              6.16


                                    OUT                                        OUT
                                    ---                                        ---
   EVAPOTRANSPIRATION =        1.4382D+08     EVAPOTRANSPIRATION =           8244.85
           STREAMFLOW =        1.2087D+08             STREAMFLOW =           4355.70
     GW BOUNDARY FLOW =          96292.36       GW BOUNDARY FLOW =             22.03

   INFLOWS - OUTFLOWS =       -2.4651D+07     INFLOWS - OUTFLOWS =         -12616.42
             --------                                   --------

 TOTAL STORAGE CHANGE =       -2.4636D+07         STORAGE CHANGE =         -12616.72
       --------------                             --------------
         LAND SURFACE =                             LAND SURFACE =                  
            SOIL ZONE =        -261824.62              SOIL ZONE =          -1552.31
     UNSATURATED ZONE =         406783.71       UNSATURATED ZONE =          -1563.55
       SATURATED ZONE =       -2.4781D+07         SATURATED ZONE =          -9500.86

 OVERALL BUDGET ERROR =         -15197.37           BUDGET ERROR =              0.31


  PERCENT DISCREPANCY =             -0.01    PERCENT DISCREPANCY =              0.00



1
 SUMMARY VOLUMETRIC BUDGET FOR GSFLOW 
 DATE: 10 08 2000              CUMULATIVE TIME STEP:       8
 MODFLOW STRESS PERIOD    122     CURRENT TIME STEP:    3661     ITERATIONS:       3

 -----------------------------------------------------------------------------------

   CUMULATIVE VOLUMES               L**3   RATES FOR THIS TIME STEP           L**3/T
   ------------------                      ------------------------

                                     IN                                         IN
                                     --                                         --
        PRECIPITATION =        2.4013D+08          PRECIPITATION =                  
           STREAMFLOW =                               STREAMFLOW =                  
     GW BOUNDARY FLOW =          15069.50       GW BOUNDARY FLOW =              6.17


                                    OUT                                        OUT
                                    ---                                        ---
   EVAPOTRANSPIRATION =        1.4387D+08     EVAPOTRANSPIRATION =           6904.66
           STREAMFLOW =        1.2091D+08             STREAMFLOW =           4762.26
     GW BOUNDARY FLOW =          96446.77       GW BOUNDARY FLOW =             22.07

   INFLOWS - OUTFLOWS =       -2.4734D+07     INFLOWS - OUTFLOWS =         -11682.81
             --------                                   --------

 TOTAL STORAGE CHANGE =       -2.4719D+07         STORAGE CHANGE =         -11619.05
       --------------                             --------------
         LAND SURFACE =                             LAND SURFACE =                  
            SOIL ZONE =        -270631.96              SOIL ZONE =          -1148.13
     UNSATURATED ZONE =         396007.79       UNSATURATED ZONE =          -1545.84
       SATURATED ZONE =       -2.4844D+07         SATURATED ZONE =          -8925.09

 OVERALL BUDGET ERROR =         -15262.55           BUDGET ERROR =            -63.76


  PERCENT DISCREPANCY =             -0.01    PERCENT DISCREPANCY =             -0.55



1
 SUMMARY VOLUMETRIC BUDGET FOR GSFLOW 
 DATE: 10 15 2000              CUMULATIVE TIME STEP:      15
 MODFLOW STRESS PERIOD    122     CURRENT TIME STEP:    3668     ITERATIONS:       7

 -----------------------------------------------------------------------------------

   CUMULATIVE VOLUMES               L**3   RATES FOR THIS TIME STEP           L**3/T
   ------------------                      ------------------------

                                     IN                                         IN
                                     --                                         --
        PRECIPITATION =        2.4034D+08          PRECIPITATION =                  
           STREAMFLOW =                               STREAMFLOW =                  
     GW BOUNDARY FLOW =          15112.71       GW BOUNDARY FLOW =              6.18


                                    OUT                                        OUT
                                    ---                                        ---
   EVAPOTRANSPIRATION =        1.4395D+08     EVAPOTRANSPIRATION =           8029.70
           STREAMFLOW =        1.2095D+08             STREAMFLOW =           6069.69
     GW BOUNDARY FLOW =          96602.65       GW BOUNDARY FLOW =             22.23

   INFLOWS - OUTFLOWS =       -2.4645D+07     INFLOWS - OUTFLOWS =         -14115.45
             --------                                   --------

 TOTAL STORAGE CHANGE =       -2.4629D+07         STORAGE CHANGE =         -14114.88
       --------------                             --------------
         LAND SURFACE =            289.77           LAND SURFACE =          -3209.51
            SOIL ZONE =        -127990.04              SOIL ZONE =          -2040.73
     UNSATURATED ZONE =         385269.71       UNSATURATED ZONE =          -1627.88
       SATURATED ZONE =       -2.4887D+07         SATURATED ZONE =          -7236.76

 OVERALL BUDGET ERROR =         -15289.51           BUDGET ERROR =             -0.56


  PERCENT DISCREPANCY =             -0.01    PERCENT DISCREPANCY =             -0.00



1
 SUMMARY VOLUMETRIC BUDGET FOR GSFLOW 
 DATE: 10 22 2000              CUMULATIVE TIME STEP:      22
 MODFLOW STRESS PERIOD    122     CURRENT TIME STEP:    3675     ITERATIONS:       5

 -----------------------------------------------------------------------------------

   CUMULATIVE VOLUMES               L**3   RATES FOR THIS TIME STEP           L**3/T
   ------------------                      ------------------------

                                     IN                                         IN
                                     --                                         --
        PRECIPITATION =        2.4039D+08          PRECIPITATION =                  
           STREAMFLOW =                               STREAMFLOW =                  
     GW BOUNDARY FLOW =          15155.96       GW BOUNDARY FLOW =              6.18


                                    OUT                                        OUT
                                    ---                                        ---
   EVAPOTRANSPIRATION =        1.4400D+08     EVAPOTRANSPIRATION =           8033.28
           STREAMFLOW =        1.2100D+08             STREAMFLOW =           7106.49
     GW BOUNDARY FLOW =          96758.43       GW BOUNDARY FLOW =             22.36

   INFLOWS - OUTFLOWS =       -2.4686D+07     INFLOWS - OUTFLOWS =         -15155.96
             --------                                   --------

 TOTAL STORAGE CHANGE =       -2.4670D+07         STORAGE CHANGE =         -15151.39
       --------------                             --------------
         LAND SURFACE =          27624.54           LAND SURFACE =          -7992.89
            SOIL ZONE =        -135966.31              SOIL ZONE =              8.67
     UNSATURATED ZONE =         374258.73       UNSATURATED ZONE =          -1480.27
       SATURATED ZONE =       -2.4936D+07         SATURATED ZONE =          -5686.90

 OVERALL BUDGET ERROR =         -15317.03           BUDGET ERROR =             -4.57


  PERCENT DISCREPANCY =             -0.01    PERCENT DISCREPANCY =             -0.03



1
 SUMMARY VOLUMETRIC BUDGET FOR GSFLOW 
 DATE: 10 29 2000              CUMULATIVE TIME STEP:      29
 MODFLOW STRESS PERIOD    122     CURRENT TIME STEP:    3682     ITERATIONS:      23

 -----------------------------------------------------------------------------------

   CUMULATIVE VOLUMES               L**3   RATES FOR THIS TIME STEP           L**3/T
   ------------------                      ------------------------

                                     IN                                         IN
                                     --                                         --
        PRECIPITATION =        2.4111D+08          PRECIPITATION =          24578.20
           STREAMFLOW =                               STREAMFLOW =                  
     GW BOUNDARY FLOW =          15199.24       GW BOUNDARY FLOW =              6.18


                                    OUT                                        OUT
                                    ---                                        ---
   EVAPOTRANSPIRATION =        1.4403D+08     EVAPOTRANSPIRATION =           1112.81
           STREAMFLOW =        1.2104D+08             STREAMFLOW =           7017.43
     GW BOUNDARY FLOW =          96914.85       GW BOUNDARY FLOW =             22.38

   INFLOWS - OUTFLOWS =       -2.4047D+07     INFLOWS - OUTFLOWS =          16431.77
             --------                                   --------

 TOTAL STORAGE CHANGE =       -2.4032D+07         STORAGE CHANGE =          16431.70
       --------------                             --------------
         LAND SURFACE =         587219.82           LAND SURFACE =          11658.99
            SOIL ZONE =          -3391.42              SOIL ZONE =          12327.51
     UNSATURATED ZONE =         363361.30       UNSATURATED ZONE =          -1570.76
       SATURATED ZONE =       -2.4979D+07         SATURATED ZONE =          -5984.04

 OVERALL BUDGET ERROR =         -15335.29           BUDGET ERROR =              0.07


  PERCENT DISCREPANCY =             -0.01    PERCENT DISCREPANCY =              0.00



 Number of time steps:   3684;  Number of non-convergence:   0
 MF iterations:         24379;  SZ iterations:           23221
 Average MF iterations:  6.62;  Average SZ iterations:    6.30
 Maximum MF iterations:   462;  Maximum SZ iterations:      50

mxsziter reached: 10

MF iteration distribution:      0    0   89  406  637 1207  878  280  105   29
                                4    3    9    4    5    2    1    0    2    1
                                1    1    4    1    0    0    0    0    1    0
                                0    0    0    1    0    0    1    0    1    0
                                0    0    0    0    0    0    0    0    1    0
                                0    0    0    0    0    0    0    0    0    0
                                0    0    0    0    0    0    0    0    0    0
                                0    0    0    1    0    0    0    0    0    9

SZ computation distribution:    0    0   89  406  637 1207  878  280  105   29
                                4    3    9    4    5    2    1    0    2    1
                                1    1    4    1    0    0    0    0    1    0
                                0    0    0    1    0    0    1    0    1    0
                                0    0    0    0    0    0    0    0    1   10
                                0    0    0    0    0    0    0    0    0    0
                                0    0    0    0    0    0    0    0    0    0
                                0    0    0    0    0    0    0    0    0    0

