1
 SUMMARY VOLUMETRIC BUDGET FOR GSFLOW 
 DATE: 10 07 1990              CUMULATIVE TIME STEP:       7
 MODFLOW STRESS PERIOD      2     CURRENT TIME STEP:       7     ITERATIONS:       7

 -----------------------------------------------------------------------------------

   CUMULATIVE VOLUMES               L**3   RATES FOR THIS TIME STEP           L**3/T
   ------------------                      ------------------------

                                     IN                                         IN
                                     --                                         --
        PRECIPITATION =                            PRECIPITATION =                  
           STREAMFLOW =                               STREAMFLOW =                  
     GW BOUNDARY FLOW =                         GW BOUNDARY FLOW =                  


                                    OUT                                        OUT
                                    ---                                        ---
   EVAPOTRANSPIRATION =         381242.21     EVAPOTRANSPIRATION =          12556.47
           STREAMFLOW =          46416.71             STREAMFLOW =           8185.43
     GW BOUNDARY FLOW =            252.80       GW BOUNDARY FLOW =             36.30

   INFLOWS - OUTFLOWS =        -427911.73     INFLOWS - OUTFLOWS =         -20778.20
             --------                                   --------

 TOTAL STORAGE CHANGE =        -426450.73         STORAGE CHANGE =         -20749.96
       --------------                             --------------
         LAND SURFACE =                             LAND SURFACE =                  
            SOIL ZONE =         -33344.15              SOIL ZONE =          -1004.88
     UNSATURATED ZONE =        -499598.40       UNSATURATED ZONE =         -34029.42
       SATURATED ZONE =         106491.83         SATURATED ZONE =          14284.34

 OVERALL BUDGET ERROR =          -1460.99           BUDGET ERROR =            -28.24


  PERCENT DISCREPANCY =             -0.34    PERCENT DISCREPANCY =             -0.14



1
 SUMMARY VOLUMETRIC BUDGET FOR GSFLOW 
 DATE: 10 14 1990              CUMULATIVE TIME STEP:      14
 MODFLOW STRESS PERIOD      2     CURRENT TIME STEP:      14     ITERATIONS:       8

 -----------------------------------------------------------------------------------

   CUMULATIVE VOLUMES               L**3   RATES FOR THIS TIME STEP           L**3/T
   ------------------                      ------------------------

                                     IN                                         IN
                                     --                                         --
        PRECIPITATION =                            PRECIPITATION =                  
           STREAMFLOW =                               STREAMFLOW =                  
     GW BOUNDARY FLOW =                         GW BOUNDARY FLOW =                  


                                    OUT                                        OUT
                                    ---                                        ---
   EVAPOTRANSPIRATION =         659586.21     EVAPOTRANSPIRATION =          42743.02
           STREAMFLOW =         100743.84             STREAMFLOW =           7179.45
     GW BOUNDARY FLOW =            506.63       GW BOUNDARY FLOW =             36.23

   INFLOWS - OUTFLOWS =        -760836.68     INFLOWS - OUTFLOWS =         -49958.71
             --------                                   --------

 TOTAL STORAGE CHANGE =        -759085.75         STORAGE CHANGE =         -49936.15
       --------------                             --------------
         LAND SURFACE =                             LAND SURFACE =                  
            SOIL ZONE =         -58148.69              SOIL ZONE =          -4431.08
     UNSATURATED ZONE =        -873588.98       UNSATURATED ZONE =         -52603.32
       SATURATED ZONE =         172651.91         SATURATED ZONE =           7098.26

 OVERALL BUDGET ERROR =          -1750.93           BUDGET ERROR =            -22.56


  PERCENT DISCREPANCY =             -0.23    PERCENT DISCREPANCY =             -0.05



1
 SUMMARY VOLUMETRIC BUDGET FOR GSFLOW 
 DATE: 10 21 1990              CUMULATIVE TIME STEP:      21
 MODFLOW STRESS PERIOD      2     CURRENT TIME STEP:      21     ITERATIONS:       6

 -----------------------------------------------------------------------------------

   CUMULATIVE VOLUMES               L**3   RATES FOR THIS TIME STEP           L**3/T
   ------------------                      ------------------------

                                     IN                                         IN
                                     --                                         --
        PRECIPITATION =         188432.87          PRECIPITATION =                  
           STREAMFLOW =                               STREAMFLOW =                  
     GW BOUNDARY FLOW =                         GW BOUNDARY FLOW =                  


                                    OUT                                        OUT
                                    ---                                        ---
   EVAPOTRANSPIRATION =         801974.93     EVAPOTRANSPIRATION =          37120.38
           STREAMFLOW =         163690.77             STREAMFLOW =          10145.31
     GW BOUNDARY FLOW =            760.82       GW BOUNDARY FLOW =             36.37

   INFLOWS - OUTFLOWS =        -777993.65     INFLOWS - OUTFLOWS =         -47302.07
             --------                                   --------

 TOTAL STORAGE CHANGE =        -777106.10         STORAGE CHANGE =         -47306.54
       --------------                             --------------
         LAND SURFACE =          15977.62           LAND SURFACE =         -34861.64
            SOIL ZONE =          55626.88              SOIL ZONE =          -1275.20
     UNSATURATED ZONE =       -1085702.40       UNSATURATED ZONE =         -21899.62
       SATURATED ZONE =         236991.79         SATURATED ZONE =          10729.92

 OVERALL BUDGET ERROR =           -887.55           BUDGET ERROR =              4.47


  PERCENT DISCREPANCY =             -0.09    PERCENT DISCREPANCY =              0.01



1
 SUMMARY VOLUMETRIC BUDGET FOR GSFLOW 
 DATE: 10 28 1990              CUMULATIVE TIME STEP:      28
 MODFLOW STRESS PERIOD      2     CURRENT TIME STEP:      28     ITERATIONS:       7

 -----------------------------------------------------------------------------------

   CUMULATIVE VOLUMES               L**3   RATES FOR THIS TIME STEP           L**3/T
   ------------------                      ------------------------

                                     IN                                         IN
                                     --                                         --
        PRECIPITATION =         188432.87          PRECIPITATION =                  
           STREAMFLOW =                               STREAMFLOW =                  
     GW BOUNDARY FLOW =                         GW BOUNDARY FLOW =                  


                                    OUT                                        OUT
                                    ---                                        ---
   EVAPOTRANSPIRATION =         927416.68     EVAPOTRANSPIRATION =          11189.07
           STREAMFLOW =         225460.32             STREAMFLOW =           9010.91
     GW BOUNDARY FLOW =           1014.01       GW BOUNDARY FLOW =             36.13

   INFLOWS - OUTFLOWS =        -965458.14     INFLOWS - OUTFLOWS =         -20236.11
             --------                                   --------

 TOTAL STORAGE CHANGE =        -964414.47         STORAGE CHANGE =         -20207.78
       --------------                             --------------
         LAND SURFACE =                             LAND SURFACE =                  
            SOIL ZONE =          26434.26              SOIL ZONE =          -3303.39
     UNSATURATED ZONE =       -1270348.46       UNSATURATED ZONE =         -23186.35
       SATURATED ZONE =         279499.73         SATURATED ZONE =           6281.96

 OVERALL BUDGET ERROR =          -1043.67           BUDGET ERROR =            -28.33


  PERCENT DISCREPANCY =             -0.09    PERCENT DISCREPANCY =             -0.14



1
 SUMMARY VOLUMETRIC BUDGET FOR GSFLOW 
 DATE: 11 04 1990              CUMULATIVE TIME STEP:       4
 MODFLOW STRESS PERIOD      3     CURRENT TIME STEP:      35     ITERATIONS:       6

 -----------------------------------------------------------------------------------

   CUMULATIVE VOLUMES               L**3   RATES FOR THIS TIME STEP           L**3/T
   ------------------                      ------------------------

                                     IN                                         IN
                                     --                                         --
        PRECIPITATION =         703113.06          PRECIPITATION =                  
           STREAMFLOW =                               STREAMFLOW =                  
     GW BOUNDARY FLOW =                         GW BOUNDARY FLOW =                  


                                    OUT                                        OUT
                                    ---                                        ---
   EVAPOTRANSPIRATION =         987111.46     EVAPOTRANSPIRATION =          26063.10
           STREAMFLOW =         296751.00             STREAMFLOW =          10681.93
     GW BOUNDARY FLOW =           1267.08       GW BOUNDARY FLOW =             36.14

   INFLOWS - OUTFLOWS =        -582016.48     INFLOWS - OUTFLOWS =         -36781.16
             --------                                   --------

 TOTAL STORAGE CHANGE =        -584527.76         STORAGE CHANGE =         -37728.77
       --------------                             --------------
         LAND SURFACE =          71009.70           LAND SURFACE =         -84159.07
            SOIL ZONE =         420125.25              SOIL ZONE =          57101.01
     UNSATURATED ZONE =       -1416258.86       UNSATURATED ZONE =         -20123.69
       SATURATED ZONE =         340596.14         SATURATED ZONE =           9452.98

 OVERALL BUDGET ERROR =           2511.28           BUDGET ERROR =            947.61


  PERCENT DISCREPANCY =              0.20    PERCENT DISCREPANCY =              2.54



1
 SUMMARY VOLUMETRIC BUDGET FOR GSFLOW 
 DATE: 11 11 1990              CUMULATIVE TIME STEP:      11
 MODFLOW STRESS PERIOD      3     CURRENT TIME STEP:      42     ITERATIONS:       6

 -----------------------------------------------------------------------------------

   CUMULATIVE VOLUMES               L**3   RATES FOR THIS TIME STEP           L**3/T
   ------------------                      ------------------------

                                     IN                                         IN
                                     --                                         --
        PRECIPITATION =         703113.06          PRECIPITATION =                  
           STREAMFLOW =                               STREAMFLOW =                  
     GW BOUNDARY FLOW =                         GW BOUNDARY FLOW =                  


                                    OUT                                        OUT
                                    ---                                        ---
   EVAPOTRANSPIRATION =        1060522.01     EVAPOTRANSPIRATION =          12411.51
           STREAMFLOW =         368022.42             STREAMFLOW =           9677.24
     GW BOUNDARY FLOW =           1519.19       GW BOUNDARY FLOW =             35.93

   INFLOWS - OUTFLOWS =        -726950.55     INFLOWS - OUTFLOWS =         -22124.68
             --------                                   --------

 TOTAL STORAGE CHANGE =        -729485.78         STORAGE CHANGE =         -22067.02
       --------------                             --------------
         LAND SURFACE =            295.92           LAND SURFACE =           -859.89
            SOIL ZONE =         436370.48              SOIL ZONE =          -6133.07
     UNSATURATED ZONE =       -1556443.42       UNSATURATED ZONE =         -20019.95
       SATURATED ZONE =         390291.25         SATURATED ZONE =           4945.89

 OVERALL BUDGET ERROR =           2535.23           BUDGET ERROR =            -57.66


  PERCENT DISCREPANCY =              0.18    PERCENT DISCREPANCY =             -0.26



1
 SUMMARY VOLUMETRIC BUDGET FOR GSFLOW 
 DATE: 11 18 1990              CUMULATIVE TIME STEP:      18
 MODFLOW STRESS PERIOD      3     CURRENT TIME STEP:      49     ITERATIONS:       6

 -----------------------------------------------------------------------------------

   CUMULATIVE VOLUMES               L**3   RATES FOR THIS TIME STEP           L**3/T
   ------------------                      ------------------------

                                     IN                                         IN
                                     --                                         --
        PRECIPITATION =         747883.35          PRECIPITATION =                  
           STREAMFLOW =                               STREAMFLOW =                  
     GW BOUNDARY FLOW =                         GW BOUNDARY FLOW =                  


                                    OUT                                        OUT
                                    ---                                        ---
   EVAPOTRANSPIRATION =        1130219.29     EVAPOTRANSPIRATION =           5431.87
           STREAMFLOW =         440063.56             STREAMFLOW =          10719.02
     GW BOUNDARY FLOW =           1770.51       GW BOUNDARY FLOW =             35.88

   INFLOWS - OUTFLOWS =        -824170.01     INFLOWS - OUTFLOWS =         -16186.77
             --------                                   --------

 TOTAL STORAGE CHANGE =        -826445.59         STORAGE CHANGE =         -16190.36
       --------------                             --------------
         LAND SURFACE =          10077.61           LAND SURFACE =          -4199.79
            SOIL ZONE =         418428.70              SOIL ZONE =           -688.52
     UNSATURATED ZONE =       -1690335.00       UNSATURATED ZONE =         -18690.37
       SATURATED ZONE =         435383.10         SATURATED ZONE =           7388.31

 OVERALL BUDGET ERROR =           2275.58           BUDGET ERROR =              3.59


  PERCENT DISCREPANCY =              0.14    PERCENT DISCREPANCY =              0.02



1
 SUMMARY VOLUMETRIC BUDGET FOR GSFLOW 
 DATE: 11 25 1990              CUMULATIVE TIME STEP:      25
 MODFLOW STRESS PERIOD      3     CURRENT TIME STEP:      56     ITERATIONS:       6

 -----------------------------------------------------------------------------------

   CUMULATIVE VOLUMES               L**3   RATES FOR THIS TIME STEP           L**3/T
   ------------------                      ------------------------

                                     IN                                         IN
                                     --                                         --
        PRECIPITATION =        1009043.38          PRECIPITATION =         186542.88
           STREAMFLOW =                               STREAMFLOW =                  
     GW BOUNDARY FLOW =                         GW BOUNDARY FLOW =                  


                                    OUT                                        OUT
                                    ---                                        ---
   EVAPOTRANSPIRATION =        1190980.07     EVAPOTRANSPIRATION =           3839.71
           STREAMFLOW =         516301.06             STREAMFLOW =          10932.56
     GW BOUNDARY FLOW =           2021.46       GW BOUNDARY FLOW =             35.79

   INFLOWS - OUTFLOWS =        -700259.21     INFLOWS - OUTFLOWS =         171734.81
             --------                                   --------

 TOTAL STORAGE CHANGE =        -704245.17         STORAGE CHANGE =         170268.52
       --------------                             --------------
         LAND SURFACE =          92124.67           LAND SURFACE =          75233.82
            SOIL ZONE =         536784.61              SOIL ZONE =         106622.14
     UNSATURATED ZONE =       -1818429.19       UNSATURATED ZONE =         -17982.65
       SATURATED ZONE =         485274.75         SATURATED ZONE =           6395.21

 OVERALL BUDGET ERROR =           3985.96           BUDGET ERROR =           1466.29


  PERCENT DISCREPANCY =              0.23    PERCENT DISCREPANCY =              0.79



1
 SUMMARY VOLUMETRIC BUDGET FOR GSFLOW 
 DATE: 12 02 1990              CUMULATIVE TIME STEP:       2
 MODFLOW STRESS PERIOD      4     CURRENT TIME STEP:      63     ITERATIONS:       6

 -----------------------------------------------------------------------------------

   CUMULATIVE VOLUMES               L**3   RATES FOR THIS TIME STEP           L**3/T
   ------------------                      ------------------------

                                     IN                                         IN
                                     --                                         --
        PRECIPITATION =        1449284.55          PRECIPITATION =                  
           STREAMFLOW =                               STREAMFLOW =                  
     GW BOUNDARY FLOW =                         GW BOUNDARY FLOW =                  


                                    OUT                                        OUT
                                    ---                                        ---
   EVAPOTRANSPIRATION =        1198549.15     EVAPOTRANSPIRATION =            374.89
           STREAMFLOW =         593763.53             STREAMFLOW =          11106.09
     GW BOUNDARY FLOW =           2271.96       GW BOUNDARY FLOW =             35.77

   INFLOWS - OUTFLOWS =        -345300.08     INFLOWS - OUTFLOWS =         -11516.75
             --------                                   --------

 TOTAL STORAGE CHANGE =        -350037.66         STORAGE CHANGE =         -11518.27
       --------------                             --------------
         LAND SURFACE =         493448.43           LAND SURFACE =           -453.37
            SOIL ZONE =         567693.51              SOIL ZONE =            127.67
     UNSATURATED ZONE =       -1941706.43       UNSATURATED ZONE =         -17317.91
       SATURATED ZONE =         530526.83         SATURATED ZONE =           6125.34

 OVERALL BUDGET ERROR =           4737.58           BUDGET ERROR =              1.51


  PERCENT DISCREPANCY =              0.26    PERCENT DISCREPANCY =              0.01



1
 SUMMARY VOLUMETRIC BUDGET FOR GSFLOW 
 DATE: 12 09 1990              CUMULATIVE TIME STEP:       9
 MODFLOW STRESS PERIOD      4     CURRENT TIME STEP:      70     ITERATIONS:       6

 -----------------------------------------------------------------------------------

   CUMULATIVE VOLUMES               L**3   RATES FOR THIS TIME STEP           L**3/T
   ------------------                      ------------------------

                                     IN                                         IN
                                     --                                         --
        PRECIPITATION =        1449284.55          PRECIPITATION =                  
           STREAMFLOW =                               STREAMFLOW =                  
     GW BOUNDARY FLOW =                         GW BOUNDARY FLOW =                  


                                    OUT                                        OUT
                                    ---                                        ---
   EVAPOTRANSPIRATION =        1277051.60     EVAPOTRANSPIRATION =          14149.65
           STREAMFLOW =         671723.29             STREAMFLOW =          10939.98
     GW BOUNDARY FLOW =           2521.92       GW BOUNDARY FLOW =             35.65

   INFLOWS - OUTFLOWS =        -502012.26     INFLOWS - OUTFLOWS =         -25125.28
             --------                                   --------

 TOTAL STORAGE CHANGE =        -510068.76         STORAGE CHANGE =         -25226.32
       --------------                             --------------
         LAND SURFACE =          66382.65           LAND SURFACE =         -46525.52
            SOIL ZONE =         916290.18              SOIL ZONE =          33950.70
     UNSATURATED ZONE =       -2059930.03       UNSATURATED ZONE =         -16537.92
       SATURATED ZONE =         567188.44         SATURATED ZONE =           3886.42

 OVERALL BUDGET ERROR =           8056.50           BUDGET ERROR =            101.04


  PERCENT DISCREPANCY =              0.41    PERCENT DISCREPANCY =              0.40



1
 SUMMARY VOLUMETRIC BUDGET FOR GSFLOW 
 DATE: 12 16 1990              CUMULATIVE TIME STEP:      16
 MODFLOW STRESS PERIOD      4     CURRENT TIME STEP:      77     ITERATIONS:       6

 -----------------------------------------------------------------------------------

   CUMULATIVE VOLUMES               L**3   RATES FOR THIS TIME STEP           L**3/T
   ------------------                      ------------------------

                                     IN                                         IN
                                     --                                         --
        PRECIPITATION =        1804962.84          PRECIPITATION =                  
           STREAMFLOW =                               STREAMFLOW =                  
     GW BOUNDARY FLOW =                         GW BOUNDARY FLOW =                  


                                    OUT                                        OUT
                                    ---                                        ---
   EVAPOTRANSPIRATION =        1305677.95     EVAPOTRANSPIRATION =                  
           STREAMFLOW =         751680.18             STREAMFLOW =          11547.77
     GW BOUNDARY FLOW =           2771.34       GW BOUNDARY FLOW =             35.61

   INFLOWS - OUTFLOWS =        -255166.63     INFLOWS - OUTFLOWS =         -11583.38
             --------                                   --------

 TOTAL STORAGE CHANGE =        -264823.18         STORAGE CHANGE =         -11578.14
       --------------                             --------------
         LAND SURFACE =         256077.35           LAND SURFACE =                  
            SOIL ZONE =        1054669.25              SOIL ZONE =            -14.54
     UNSATURATED ZONE =       -2173649.52       UNSATURATED ZONE =         -15995.43
       SATURATED ZONE =         598079.75         SATURATED ZONE =           4431.83

 OVERALL BUDGET ERROR =           9656.55           BUDGET ERROR =             -5.24


  PERCENT DISCREPANCY =              0.47    PERCENT DISCREPANCY =             -0.05



1
 SUMMARY VOLUMETRIC BUDGET FOR GSFLOW 
 DATE: 12 23 1990              CUMULATIVE TIME STEP:      23
 MODFLOW STRESS PERIOD      4     CURRENT TIME STEP:      84     ITERATIONS:       6

 -----------------------------------------------------------------------------------

   CUMULATIVE VOLUMES               L**3   RATES FOR THIS TIME STEP           L**3/T
   ------------------                      ------------------------

                                     IN                                         IN
                                     --                                         --
        PRECIPITATION =        2276236.55          PRECIPITATION =                  
           STREAMFLOW =                               STREAMFLOW =                  
     GW BOUNDARY FLOW =              0.08       GW BOUNDARY FLOW =              0.04


                                    OUT                                        OUT
                                    ---                                        ---
   EVAPOTRANSPIRATION =        1307052.60     EVAPOTRANSPIRATION =                  
           STREAMFLOW =         832704.67             STREAMFLOW =          11596.61
     GW BOUNDARY FLOW =           3020.38       GW BOUNDARY FLOW =             35.57

   INFLOWS - OUTFLOWS =         133458.98     INFLOWS - OUTFLOWS =         -11632.14
             --------                                   --------

 TOTAL STORAGE CHANGE =         123842.80         STORAGE CHANGE =         -11626.76
       --------------                             --------------
         LAND SURFACE =         725980.65           LAND SURFACE =                  
            SOIL ZONE =        1054902.94              SOIL ZONE =             61.26
     UNSATURATED ZONE =       -2283166.08       UNSATURATED ZONE =         -15398.59
       SATURATED ZONE =         626125.29         SATURATED ZONE =           3710.57

 OVERALL BUDGET ERROR =           9616.18           BUDGET ERROR =             -5.39


  PERCENT DISCREPANCY =              0.42    PERCENT DISCREPANCY =             -0.05



1
 SUMMARY VOLUMETRIC BUDGET FOR GSFLOW 
 DATE: 12 30 1990              CUMULATIVE TIME STEP:      30
 MODFLOW STRESS PERIOD      4     CURRENT TIME STEP:      91     ITERATIONS:       5

 -----------------------------------------------------------------------------------

   CUMULATIVE VOLUMES               L**3   RATES FOR THIS TIME STEP           L**3/T
   ------------------                      ------------------------

                                     IN                                         IN
                                     --                                         --
        PRECIPITATION =        2276236.55          PRECIPITATION =                  
           STREAMFLOW =                               STREAMFLOW =                  
     GW BOUNDARY FLOW =              0.77       GW BOUNDARY FLOW =              0.14


                                    OUT                                        OUT
                                    ---                                        ---
   EVAPOTRANSPIRATION =        1307805.24     EVAPOTRANSPIRATION =                  
           STREAMFLOW =         914120.51             STREAMFLOW =          11658.14
     GW BOUNDARY FLOW =           3269.49       GW BOUNDARY FLOW =             35.60

   INFLOWS - OUTFLOWS =          51042.08     INFLOWS - OUTFLOWS =         -11693.60
             --------                                   --------

 TOTAL STORAGE CHANGE =          41468.91         STORAGE CHANGE =         -11686.93
       --------------                             --------------
         LAND SURFACE =         725228.16           LAND SURFACE =                  
            SOIL ZONE =        1055520.04              SOIL ZONE =            105.87
     UNSATURATED ZONE =       -2388790.61       UNSATURATED ZONE =         -14856.98
       SATURATED ZONE =         649511.31         SATURATED ZONE =           3064.18

 OVERALL BUDGET ERROR =           9573.17           BUDGET ERROR =             -6.67


  PERCENT DISCREPANCY =              0.42    PERCENT DISCREPANCY =             -0.06



1
 SUMMARY VOLUMETRIC BUDGET FOR GSFLOW 
 DATE: 01 06 1991              CUMULATIVE TIME STEP:       6
 MODFLOW STRESS PERIOD      5     CURRENT TIME STEP:      98     ITERATIONS:       5

 -----------------------------------------------------------------------------------

   CUMULATIVE VOLUMES               L**3   RATES FOR THIS TIME STEP           L**3/T
   ------------------                      ------------------------

                                     IN                                         IN
                                     --                                         --
        PRECIPITATION =        2276236.55          PRECIPITATION =                  
           STREAMFLOW =                               STREAMFLOW =                  
     GW BOUNDARY FLOW =              2.09       GW BOUNDARY FLOW =              0.22


                                    OUT                                        OUT
                                    ---                                        ---
   EVAPOTRANSPIRATION =        1331082.92     EVAPOTRANSPIRATION =           2584.60
           STREAMFLOW =         996143.62             STREAMFLOW =          11755.70
     GW BOUNDARY FLOW =           3519.38       GW BOUNDARY FLOW =             35.75

   INFLOWS - OUTFLOWS =         -54507.28     INFLOWS - OUTFLOWS =         -14375.82
             --------                                   --------

 TOTAL STORAGE CHANGE =         -65844.44         STORAGE CHANGE =         -14460.19
       --------------                             --------------
         LAND SURFACE =         620283.29           LAND SURFACE =          -6112.33
            SOIL ZONE =        1136107.15              SOIL ZONE =           3535.80
     UNSATURATED ZONE =       -2490453.34       UNSATURATED ZONE =         -14286.07
       SATURATED ZONE =         668218.46         SATURATED ZONE =           2402.41

 OVERALL BUDGET ERROR =          11337.16           BUDGET ERROR =             84.37


  PERCENT DISCREPANCY =              0.49    PERCENT DISCREPANCY =              0.59



1
 SUMMARY VOLUMETRIC BUDGET FOR GSFLOW 
 DATE: 01 13 1991              CUMULATIVE TIME STEP:      13
 MODFLOW STRESS PERIOD      5     CURRENT TIME STEP:     105     ITERATIONS:       6

 -----------------------------------------------------------------------------------

   CUMULATIVE VOLUMES               L**3   RATES FOR THIS TIME STEP           L**3/T
   ------------------                      ------------------------

                                     IN                                         IN
                                     --                                         --
        PRECIPITATION =        2596386.94          PRECIPITATION =          10327.43
           STREAMFLOW =                               STREAMFLOW =                  
     GW BOUNDARY FLOW =              4.01       GW BOUNDARY FLOW =              0.31


                                    OUT                                        OUT
                                    ---                                        ---
   EVAPOTRANSPIRATION =        1391673.70     EVAPOTRANSPIRATION =          17398.97
           STREAMFLOW =        1078630.80             STREAMFLOW =          11793.41
     GW BOUNDARY FLOW =           3769.61       GW BOUNDARY FLOW =             35.73

   INFLOWS - OUTFLOWS =         122316.85     INFLOWS - OUTFLOWS =         -18900.36
             --------                                   --------

 TOTAL STORAGE CHANGE =         107247.29         STORAGE CHANGE =         -19910.83
       --------------                             --------------
         LAND SURFACE =         586364.85           LAND SURFACE =        -135127.18
            SOIL ZONE =        1427557.11              SOIL ZONE =         127815.52
     UNSATURATED ZONE =       -2588068.71       UNSATURATED ZONE =         -13753.00
       SATURATED ZONE =         681394.05         SATURATED ZONE =           1153.83

 OVERALL BUDGET ERROR =          15069.56           BUDGET ERROR =           1010.47

  ***WARNING, FLUX RATES OFF > 3%

  PERCENT DISCREPANCY =              0.58    PERCENT DISCREPANCY =              3.40



1
 SUMMARY VOLUMETRIC BUDGET FOR GSFLOW 
 DATE: 01 20 1991              CUMULATIVE TIME STEP:      20
 MODFLOW STRESS PERIOD      5     CURRENT TIME STEP:     112     ITERATIONS:       5

 -----------------------------------------------------------------------------------

   CUMULATIVE VOLUMES               L**3   RATES FOR THIS TIME STEP           L**3/T
   ------------------                      ------------------------

                                     IN                                         IN
                                     --                                         --
        PRECIPITATION =        2596386.94          PRECIPITATION =                  
           STREAMFLOW =                               STREAMFLOW =                  
     GW BOUNDARY FLOW =              6.54       GW BOUNDARY FLOW =              0.40


                                    OUT                                        OUT
                                    ---                                        ---
   EVAPOTRANSPIRATION =        1462383.94     EVAPOTRANSPIRATION =           1894.75
           STREAMFLOW =        1162102.38             STREAMFLOW =          11927.22
     GW BOUNDARY FLOW =           4019.84       GW BOUNDARY FLOW =             35.75

   INFLOWS - OUTFLOWS =         -32112.67     INFLOWS - OUTFLOWS =         -13857.32
             --------                                   --------

 TOTAL STORAGE CHANGE =         -47928.86         STORAGE CHANGE =         -13842.18
       --------------                             --------------
         LAND SURFACE =         422210.58           LAND SURFACE =           -295.67
            SOIL ZONE =        1520670.03              SOIL ZONE =          -1546.04
     UNSATURATED ZONE =       -2681789.35       UNSATURATED ZONE =         -13163.49
       SATURATED ZONE =         690979.88         SATURATED ZONE =           1163.02

 OVERALL BUDGET ERROR =          15816.18           BUDGET ERROR =            -15.14


  PERCENT DISCREPANCY =              0.60    PERCENT DISCREPANCY =             -0.11



1
 SUMMARY VOLUMETRIC BUDGET FOR GSFLOW 
 DATE: 01 27 1991              CUMULATIVE TIME STEP:      27
 MODFLOW STRESS PERIOD      5     CURRENT TIME STEP:     119     ITERATIONS:       5

 -----------------------------------------------------------------------------------

   CUMULATIVE VOLUMES               L**3   RATES FOR THIS TIME STEP           L**3/T
   ------------------                      ------------------------

                                     IN                                         IN
                                     --                                         --
        PRECIPITATION =        2596386.94          PRECIPITATION =                  
           STREAMFLOW =                               STREAMFLOW =                  
     GW BOUNDARY FLOW =              9.65       GW BOUNDARY FLOW =              0.48


                                    OUT                                        OUT
                                    ---                                        ---
   EVAPOTRANSPIRATION =        1484459.03     EVAPOTRANSPIRATION =           1241.58
           STREAMFLOW =        1245561.43             STREAMFLOW =          11942.29
     GW BOUNDARY FLOW =           4270.01       GW BOUNDARY FLOW =             35.74

   INFLOWS - OUTFLOWS =        -137893.88     INFLOWS - OUTFLOWS =         -13219.13
             --------                                   --------

 TOTAL STORAGE CHANGE =        -153808.32         STORAGE CHANGE =         -13197.94
       --------------                             --------------
         LAND SURFACE =         394226.38           LAND SURFACE =           -109.80
            SOIL ZONE =        1527242.20              SOIL ZONE =          -1025.59
     UNSATURATED ZONE =       -2771980.62       UNSATURATED ZONE =         -12666.34
       SATURATED ZONE =         696703.71         SATURATED ZONE =            603.79

 OVERALL BUDGET ERROR =          15914.45           BUDGET ERROR =            -21.19


  PERCENT DISCREPANCY =              0.58    PERCENT DISCREPANCY =             -0.16



1
 SUMMARY VOLUMETRIC BUDGET FOR GSFLOW 
 DATE: 02 03 1991              CUMULATIVE TIME STEP:       3
 MODFLOW STRESS PERIOD      6     CURRENT TIME STEP:     126     ITERATIONS:       7

 -----------------------------------------------------------------------------------

   CUMULATIVE VOLUMES               L**3   RATES FOR THIS TIME STEP           L**3/T
   ------------------                      ------------------------

                                     IN                                         IN
                                     --                                         --
        PRECIPITATION =        3228422.31          PRECIPITATION =          30459.53
           STREAMFLOW =                               STREAMFLOW =                  
     GW BOUNDARY FLOW =             13.31       GW BOUNDARY FLOW =              0.55


                                    OUT                                        OUT
                                    ---                                        ---
   EVAPOTRANSPIRATION =        1586887.11     EVAPOTRANSPIRATION =          20521.46
           STREAMFLOW =        1329664.44             STREAMFLOW =          12168.25
     GW BOUNDARY FLOW =           4520.09       GW BOUNDARY FLOW =             35.73

   INFLOWS - OUTFLOWS =         307363.97     INFLOWS - OUTFLOWS =          -2265.35
             --------                                   --------

 TOTAL STORAGE CHANGE =         286263.77         STORAGE CHANGE =          -2421.34
       --------------                             --------------
         LAND SURFACE =         184727.70           LAND SURFACE =         -28670.24
            SOIL ZONE =        2261380.86              SOIL ZONE =          38319.91
     UNSATURATED ZONE =       -2858959.97       UNSATURATED ZONE =         -12277.60
       SATURATED ZONE =         699115.18         SATURATED ZONE =            206.59

 OVERALL BUDGET ERROR =          21100.20           BUDGET ERROR =            155.99


  PERCENT DISCREPANCY =              0.66    PERCENT DISCREPANCY =              0.48



1
 SUMMARY VOLUMETRIC BUDGET FOR GSFLOW 
 DATE: 02 10 1991              CUMULATIVE TIME STEP:      10
 MODFLOW STRESS PERIOD      6     CURRENT TIME STEP:     133     ITERATIONS:       5

 -----------------------------------------------------------------------------------

   CUMULATIVE VOLUMES               L**3   RATES FOR THIS TIME STEP           L**3/T
   ------------------                      ------------------------

                                     IN                                         IN
                                     --                                         --
        PRECIPITATION =        3510173.01          PRECIPITATION =                  
           STREAMFLOW =                               STREAMFLOW =                  
     GW BOUNDARY FLOW =             17.49       GW BOUNDARY FLOW =              0.63


                                    OUT                                        OUT
                                    ---                                        ---
   EVAPOTRANSPIRATION =        1753834.37     EVAPOTRANSPIRATION =          25867.74
           STREAMFLOW =        1415650.38             STREAMFLOW =          12205.11
     GW BOUNDARY FLOW =           4770.17       GW BOUNDARY FLOW =             35.72

   INFLOWS - OUTFLOWS =         335935.58     INFLOWS - OUTFLOWS =         -38107.94
             --------                                   --------

 TOTAL STORAGE CHANGE =         312753.70         STORAGE CHANGE =         -38035.12
       --------------                             --------------
         LAND SURFACE =          90050.80           LAND SURFACE =         -12330.62
            SOIL ZONE =        2467258.93              SOIL ZONE =         -13528.24
     UNSATURATED ZONE =       -2942508.86       UNSATURATED ZONE =         -11770.74
       SATURATED ZONE =         697952.83         SATURATED ZONE =           -405.52

 OVERALL BUDGET ERROR =          23181.87           BUDGET ERROR =            -72.82


  PERCENT DISCREPANCY =              0.66    PERCENT DISCREPANCY =             -0.19



1
 SUMMARY VOLUMETRIC BUDGET FOR GSFLOW 
 DATE: 02 17 1991              CUMULATIVE TIME STEP:      17
 MODFLOW STRESS PERIOD      6     CURRENT TIME STEP:     140     ITERATIONS:       6

 -----------------------------------------------------------------------------------

   CUMULATIVE VOLUMES               L**3   RATES FOR THIS TIME STEP           L**3/T
   ------------------                      ------------------------

                                     IN                                         IN
                                     --                                         --
        PRECIPITATION =        3510173.01          PRECIPITATION =                  
           STREAMFLOW =                               STREAMFLOW =                  
     GW BOUNDARY FLOW =             22.16       GW BOUNDARY FLOW =              0.70


                                    OUT                                        OUT
                                    ---                                        ---
   EVAPOTRANSPIRATION =        1997467.56     EVAPOTRANSPIRATION =          23271.15
           STREAMFLOW =        1499672.18             STREAMFLOW =          12066.34
     GW BOUNDARY FLOW =           5020.09       GW BOUNDARY FLOW =             35.68

   INFLOWS - OUTFLOWS =           8035.33     INFLOWS - OUTFLOWS =         -35372.48
             --------                                   --------

 TOTAL STORAGE CHANGE =         -14403.50         STORAGE CHANGE =         -35280.20
       --------------                             --------------
         LAND SURFACE =          18163.73           LAND SURFACE =          -1654.25
            SOIL ZONE =        2295866.88              SOIL ZONE =         -21637.67
     UNSATURATED ZONE =       -3022532.03       UNSATURATED ZONE =         -11126.78
       SATURATED ZONE =         694097.92         SATURATED ZONE =           -861.49

 OVERALL BUDGET ERROR =          22438.83           BUDGET ERROR =            -92.28


  PERCENT DISCREPANCY =              0.64    PERCENT DISCREPANCY =             -0.26



1
 SUMMARY VOLUMETRIC BUDGET FOR GSFLOW 
 DATE: 02 24 1991              CUMULATIVE TIME STEP:      24
 MODFLOW STRESS PERIOD      6     CURRENT TIME STEP:     147     ITERATIONS:       5

 -----------------------------------------------------------------------------------

   CUMULATIVE VOLUMES               L**3   RATES FOR THIS TIME STEP           L**3/T
   ------------------                      ------------------------

                                     IN                                         IN
                                     --                                         --
        PRECIPITATION =        3510173.01          PRECIPITATION =                  
           STREAMFLOW =                               STREAMFLOW =                  
     GW BOUNDARY FLOW =             27.30       GW BOUNDARY FLOW =              0.76


                                    OUT                                        OUT
                                    ---                                        ---
   EVAPOTRANSPIRATION =        2213750.84     EVAPOTRANSPIRATION =          21972.96
           STREAMFLOW =        1583874.75             STREAMFLOW =          11961.82
     GW BOUNDARY FLOW =           5269.01       GW BOUNDARY FLOW =             35.48

   INFLOWS - OUTFLOWS =        -292694.29     INFLOWS - OUTFLOWS =         -33969.50
             --------                                   --------

 TOTAL STORAGE CHANGE =        -314282.11         STORAGE CHANGE =         -33874.74
       --------------                             --------------
         LAND SURFACE =           6686.42           LAND SURFACE =           -239.07
            SOIL ZONE =        2092259.49              SOIL ZONE =         -21442.63
     UNSATURATED ZONE =       -3098699.24       UNSATURATED ZONE =         -10713.41
       SATURATED ZONE =         685471.22         SATURATED ZONE =          -1479.63

 OVERALL BUDGET ERROR =          21587.82           BUDGET ERROR =            -94.76


  PERCENT DISCREPANCY =              0.57    PERCENT DISCREPANCY =             -0.28



1
 SUMMARY VOLUMETRIC BUDGET FOR GSFLOW 
 DATE: 03 03 1991              CUMULATIVE TIME STEP:       3
 MODFLOW STRESS PERIOD      7     CURRENT TIME STEP:     154     ITERATIONS:       6

 -----------------------------------------------------------------------------------

   CUMULATIVE VOLUMES               L**3   RATES FOR THIS TIME STEP           L**3/T
   ------------------                      ------------------------

                                     IN                                         IN
                                     --                                         --
        PRECIPITATION =        6220189.63          PRECIPITATION =        1243187.24
           STREAMFLOW =                               STREAMFLOW =                  
     GW BOUNDARY FLOW =             32.91       GW BOUNDARY FLOW =              0.83


                                    OUT                                        OUT
                                    ---                                        ---
   EVAPOTRANSPIRATION =        2365872.35     EVAPOTRANSPIRATION =           7999.26
           STREAMFLOW =        1667310.68             STREAMFLOW =          12178.34
     GW BOUNDARY FLOW =           5516.70       GW BOUNDARY FLOW =             35.33

   INFLOWS - OUTFLOWS =        2181522.81     INFLOWS - OUTFLOWS =        1222975.14
             --------                                   --------

 TOTAL STORAGE CHANGE =        2155638.12         STORAGE CHANGE =        1218195.89
       --------------                             --------------
         LAND SURFACE =        2505892.53           LAND SURFACE =        1046737.06
            SOIL ZONE =        2150307.59              SOIL ZONE =         184072.88
     UNSATURATED ZONE =       -3171857.01       UNSATURATED ZONE =         -10288.38
       SATURATED ZONE =         671295.01         SATURATED ZONE =          -2325.67

 OVERALL BUDGET ERROR =          25884.69           BUDGET ERROR =           4779.25


  PERCENT DISCREPANCY =              0.42    PERCENT DISCREPANCY =              0.39



1
 SUMMARY VOLUMETRIC BUDGET FOR GSFLOW 
 DATE: 03 10 1991              CUMULATIVE TIME STEP:      10
 MODFLOW STRESS PERIOD      7     CURRENT TIME STEP:     161     ITERATIONS:       5

 -----------------------------------------------------------------------------------

   CUMULATIVE VOLUMES               L**3   RATES FOR THIS TIME STEP           L**3/T
   ------------------                      ------------------------

                                     IN                                         IN
                                     --                                         --
        PRECIPITATION =        8746030.42          PRECIPITATION =          32888.55
           STREAMFLOW =                               STREAMFLOW =                  
     GW BOUNDARY FLOW =             38.94       GW BOUNDARY FLOW =              0.89


                                    OUT                                        OUT
                                    ---                                        ---
   EVAPOTRANSPIRATION =        2418618.07     EVAPOTRANSPIRATION =           6928.61
           STREAMFLOW =        1806267.98             STREAMFLOW =          18675.22
     GW BOUNDARY FLOW =           5764.78       GW BOUNDARY FLOW =             35.36

   INFLOWS - OUTFLOWS =        4515418.54     INFLOWS - OUTFLOWS =           7250.25
             --------                                   --------

 TOTAL STORAGE CHANGE =        4470088.12         STORAGE CHANGE =           6750.23
       --------------                             --------------
         LAND SURFACE =        3056677.03           LAND SURFACE =          -5526.40
            SOIL ZONE =        3964839.91              SOIL ZONE =          19127.23
     UNSATURATED ZONE =       -3213910.47       UNSATURATED ZONE =          -5241.20
       SATURATED ZONE =         662481.65         SATURATED ZONE =          -1609.40

 OVERALL BUDGET ERROR =          45330.42           BUDGET ERROR =            500.03


  PERCENT DISCREPANCY =              0.52    PERCENT DISCREPANCY =              1.53



1
 SUMMARY VOLUMETRIC BUDGET FOR GSFLOW 
 DATE: 03 17 1991              CUMULATIVE TIME STEP:      17
 MODFLOW STRESS PERIOD      7     CURRENT TIME STEP:     168     ITERATIONS:       6

 -----------------------------------------------------------------------------------

   CUMULATIVE VOLUMES               L**3   RATES FOR THIS TIME STEP           L**3/T
   ------------------                      ------------------------

                                     IN                                         IN
                                     --                                         --
        PRECIPITATION =        9897129.71          PRECIPITATION =         157865.04
           STREAMFLOW =                               STREAMFLOW =                  
     GW BOUNDARY FLOW =             45.40       GW BOUNDARY FLOW =              0.95


                                    OUT                                        OUT
                                    ---                                        ---
   EVAPOTRANSPIRATION =        2440020.30     EVAPOTRANSPIRATION =           6374.59
           STREAMFLOW =        1928923.35             STREAMFLOW =          17014.56
     GW BOUNDARY FLOW =           6011.57       GW BOUNDARY FLOW =             35.18

   INFLOWS - OUTFLOWS =        5522219.90     INFLOWS - OUTFLOWS =         134441.67
             --------                                   --------

 TOTAL STORAGE CHANGE =        5478979.72         STORAGE CHANGE =         134774.18
       --------------                             --------------
         LAND SURFACE =        4188230.79           LAND SURFACE =         152136.56
            SOIL ZONE =        3891940.29              SOIL ZONE =          -9561.46
     UNSATURATED ZONE =       -3251166.81       UNSATURATED ZONE =          -5552.28
       SATURATED ZONE =         649975.45         SATURATED ZONE =          -2248.65

 OVERALL BUDGET ERROR =          43240.17           BUDGET ERROR =           -332.51


  PERCENT DISCREPANCY =              0.44    PERCENT DISCREPANCY =             -0.21



1
 SUMMARY VOLUMETRIC BUDGET FOR GSFLOW 
 DATE: 03 24 1991              CUMULATIVE TIME STEP:      24
 MODFLOW STRESS PERIOD      7     CURRENT TIME STEP:     175     ITERATIONS:       5

 -----------------------------------------------------------------------------------

   CUMULATIVE VOLUMES               L**3   RATES FOR THIS TIME STEP           L**3/T
   ------------------                      ------------------------

                                     IN                                         IN
                                     --                                         --
        PRECIPITATION =        1.1673D+07          PRECIPITATION =        1230031.83
           STREAMFLOW =                               STREAMFLOW =                  
     GW BOUNDARY FLOW =             52.26       GW BOUNDARY FLOW =              1.00


                                    OUT                                        OUT
                                    ---                                        ---
   EVAPOTRANSPIRATION =        2470884.53     EVAPOTRANSPIRATION =           3629.88
           STREAMFLOW =        2046365.60             STREAMFLOW =          16615.46
     GW BOUNDARY FLOW =           6257.22       GW BOUNDARY FLOW =             35.03

   INFLOWS - OUTFLOWS =        7149656.42     INFLOWS - OUTFLOWS =        1209752.48
             --------                                   --------

 TOTAL STORAGE CHANGE =        7108608.81         STORAGE CHANGE =        1210188.79
       --------------                             --------------
         LAND SURFACE =        5933783.02           LAND SURFACE =        1227482.51
            SOIL ZONE =        3831777.28              SOIL ZONE =          -9114.49
     UNSATURATED ZONE =       -3290329.95       UNSATURATED ZONE =          -5668.16
       SATURATED ZONE =         633378.46         SATURATED ZONE =          -2511.08

 OVERALL BUDGET ERROR =          41047.62           BUDGET ERROR =           -436.31


  PERCENT DISCREPANCY =              0.35    PERCENT DISCREPANCY =             -0.04



1
 SUMMARY VOLUMETRIC BUDGET FOR GSFLOW 
 DATE: 03 31 1991              CUMULATIVE TIME STEP:      31
 MODFLOW STRESS PERIOD      7     CURRENT TIME STEP:     182     ITERATIONS:       5

 -----------------------------------------------------------------------------------

   CUMULATIVE VOLUMES               L**3   RATES FOR THIS TIME STEP           L**3/T
   ------------------                      ------------------------

                                     IN                                         IN
                                     --                                         --
        PRECIPITATION =        1.2495D+07          PRECIPITATION =                  
           STREAMFLOW =                               STREAMFLOW =                  
     GW BOUNDARY FLOW =             59.52       GW BOUNDARY FLOW =              1.06


                                    OUT                                        OUT
                                    ---                                        ---
   EVAPOTRANSPIRATION =        2577426.09     EVAPOTRANSPIRATION =          43683.02
           STREAMFLOW =        2165585.29             STREAMFLOW =          19360.94
     GW BOUNDARY FLOW =           6501.98       GW BOUNDARY FLOW =             34.96

   INFLOWS - OUTFLOWS =        7745871.44     INFLOWS - OUTFLOWS =         -63077.85
             --------                                   --------

 TOTAL STORAGE CHANGE =        7704973.08         STORAGE CHANGE =         -64514.90
       --------------                             --------------
         LAND SURFACE =        6553217.20           LAND SURFACE =        -112248.22
            SOIL ZONE =        3866145.11              SOIL ZONE =          55689.79
     UNSATURATED ZONE =       -3328769.12       UNSATURATED ZONE =          -4958.23
       SATURATED ZONE =         614379.87         SATURATED ZONE =          -2998.24

 OVERALL BUDGET ERROR =          40898.37           BUDGET ERROR =           1437.05


  PERCENT DISCREPANCY =              0.33    PERCENT DISCREPANCY =              2.25



1
 SUMMARY VOLUMETRIC BUDGET FOR GSFLOW 
 DATE: 04 07 1991              CUMULATIVE TIME STEP:       7
 MODFLOW STRESS PERIOD      8     CURRENT TIME STEP:     189     ITERATIONS:       7

 -----------------------------------------------------------------------------------

   CUMULATIVE VOLUMES               L**3   RATES FOR THIS TIME STEP           L**3/T
   ------------------                      ------------------------

                                     IN                                         IN
                                     --                                         --
        PRECIPITATION =        1.3018D+07          PRECIPITATION =                  
           STREAMFLOW =                               STREAMFLOW =                  
     GW BOUNDARY FLOW =             67.14       GW BOUNDARY FLOW =              1.11


                                    OUT                                        OUT
                                    ---                                        ---
   EVAPOTRANSPIRATION =        2860768.83     EVAPOTRANSPIRATION =          13549.39
           STREAMFLOW =        2432955.17             STREAMFLOW =          53485.84
     GW BOUNDARY FLOW =           6748.61       GW BOUNDARY FLOW =             35.46

   INFLOWS - OUTFLOWS =        7717331.27     INFLOWS - OUTFLOWS =         -67069.58
             --------                                   --------

 TOTAL STORAGE CHANGE =        7657776.99         STORAGE CHANGE =         -66268.40
       --------------                             --------------
         LAND SURFACE =        5033071.34           LAND SURFACE =         -59134.98
            SOIL ZONE =        5351428.74              SOIL ZONE =         -11735.61
     UNSATURATED ZONE =       -3324323.54       UNSATURATED ZONE =           6687.67
       SATURATED ZONE =         597600.45         SATURATED ZONE =          -2085.48

 OVERALL BUDGET ERROR =          59554.28           BUDGET ERROR =           -801.18


  PERCENT DISCREPANCY =              0.46    PERCENT DISCREPANCY =             -1.20



1
 SUMMARY VOLUMETRIC BUDGET FOR GSFLOW 
 DATE: 04 14 1991              CUMULATIVE TIME STEP:      14
 MODFLOW STRESS PERIOD      8     CURRENT TIME STEP:     196     ITERATIONS:       7

 -----------------------------------------------------------------------------------

   CUMULATIVE VOLUMES               L**3   RATES FOR THIS TIME STEP           L**3/T
   ------------------                      ------------------------

                                     IN                                         IN
                                     --                                         --
        PRECIPITATION =        1.3018D+07          PRECIPITATION =                  
           STREAMFLOW =                               STREAMFLOW =                  
     GW BOUNDARY FLOW =             75.09       GW BOUNDARY FLOW =              1.16


                                    OUT                                        OUT
                                    ---                                        ---
   EVAPOTRANSPIRATION =        3030691.45     EVAPOTRANSPIRATION =          38955.66
           STREAMFLOW =        2855759.82             STREAMFLOW =          65493.41
     GW BOUNDARY FLOW =           6996.96       GW BOUNDARY FLOW =             35.50

   INFLOWS - OUTFLOWS =        7124363.59     INFLOWS - OUTFLOWS =        -104483.41
             --------                                   --------

 TOTAL STORAGE CHANGE =        7077935.55         STORAGE CHANGE =        -103669.19
       --------------                             --------------
         LAND SURFACE =        4428670.43           LAND SURFACE =        -170838.53
            SOIL ZONE =        5342289.71              SOIL ZONE =          62674.47
     UNSATURATED ZONE =       -3277278.89       UNSATURATED ZONE =           6471.18
       SATURATED ZONE =         584254.30         SATURATED ZONE =          -1976.31

 OVERALL BUDGET ERROR =          46428.04           BUDGET ERROR =           -814.22


  PERCENT DISCREPANCY =              0.36    PERCENT DISCREPANCY =             -0.78



1
 SUMMARY VOLUMETRIC BUDGET FOR GSFLOW 
 DATE: 04 21 1991              CUMULATIVE TIME STEP:      21
 MODFLOW STRESS PERIOD      8     CURRENT TIME STEP:     203     ITERATIONS:       7

 -----------------------------------------------------------------------------------

   CUMULATIVE VOLUMES               L**3   RATES FOR THIS TIME STEP           L**3/T
   ------------------                      ------------------------

                                     IN                                         IN
                                     --                                         --
        PRECIPITATION =        1.3034D+07          PRECIPITATION =                  
           STREAMFLOW =                               STREAMFLOW =                  
     GW BOUNDARY FLOW =             83.35       GW BOUNDARY FLOW =              1.20


                                    OUT                                        OUT
                                    ---                                        ---
   EVAPOTRANSPIRATION =        3262493.30     EVAPOTRANSPIRATION =          43459.74
           STREAMFLOW =        3372588.02             STREAMFLOW =          86999.27
     GW BOUNDARY FLOW =           7245.77       GW BOUNDARY FLOW =             35.67

   INFLOWS - OUTFLOWS =        6391818.35     INFLOWS - OUTFLOWS =        -130493.48
             --------                                   --------

 TOTAL STORAGE CHANGE =        6364275.35         STORAGE CHANGE =        -127193.93
       --------------                             --------------
         LAND SURFACE =        3288381.96           LAND SURFACE =        -224119.74
            SOIL ZONE =        5728749.41              SOIL ZONE =          89012.20
     UNSATURATED ZONE =       -3225508.51       UNSATURATED ZONE =           9395.11
       SATURATED ZONE =         572652.48         SATURATED ZONE =          -1481.49

 OVERALL BUDGET ERROR =          27543.00           BUDGET ERROR =          -3299.55


  PERCENT DISCREPANCY =              0.21    PERCENT DISCREPANCY =             -2.56



1
 SUMMARY VOLUMETRIC BUDGET FOR GSFLOW 
 DATE: 04 28 1991              CUMULATIVE TIME STEP:      28
 MODFLOW STRESS PERIOD      8     CURRENT TIME STEP:     210     ITERATIONS:       7

 -----------------------------------------------------------------------------------

   CUMULATIVE VOLUMES               L**3   RATES FOR THIS TIME STEP           L**3/T
   ------------------                      ------------------------

                                     IN                                         IN
                                     --                                         --
        PRECIPITATION =        1.3303D+07          PRECIPITATION =                  
           STREAMFLOW =                               STREAMFLOW =                  
     GW BOUNDARY FLOW =             91.88       GW BOUNDARY FLOW =              1.23


                                    OUT                                        OUT
                                    ---                                        ---
   EVAPOTRANSPIRATION =        3509451.36     EVAPOTRANSPIRATION =          55283.23
           STREAMFLOW =        4027053.81             STREAMFLOW =          95612.53
     GW BOUNDARY FLOW =           7495.61       GW BOUNDARY FLOW =             35.67

   INFLOWS - OUTFLOWS =        5759521.61     INFLOWS - OUTFLOWS =        -150930.20
             --------                                   --------

 TOTAL STORAGE CHANGE =        5772839.90         STORAGE CHANGE =        -144174.88
       --------------                             --------------
         LAND SURFACE =        2542972.45           LAND SURFACE =        -158428.10
            SOIL ZONE =        5819945.33              SOIL ZONE =           5437.46
     UNSATURATED ZONE =       -3155538.55       UNSATURATED ZONE =           9739.20
       SATURATED ZONE =         565460.66         SATURATED ZONE =           -923.43

 OVERALL BUDGET ERROR =         -13318.29           BUDGET ERROR =          -6755.32

  ***WARNING, FLUX RATES OFF > 3%

  PERCENT DISCREPANCY =             -0.10    PERCENT DISCREPANCY =             -4.58



1
 SUMMARY VOLUMETRIC BUDGET FOR GSFLOW 
 DATE: 05 05 1991              CUMULATIVE TIME STEP:       5
 MODFLOW STRESS PERIOD      9     CURRENT TIME STEP:     217     ITERATIONS:      78

 -----------------------------------------------------------------------------------

   CUMULATIVE VOLUMES               L**3   RATES FOR THIS TIME STEP           L**3/T
   ------------------                      ------------------------

                                     IN                                         IN
                                     --                                         --
        PRECIPITATION =        1.3510D+07          PRECIPITATION =                  
           STREAMFLOW =                               STREAMFLOW =                  
     GW BOUNDARY FLOW =            100.67       GW BOUNDARY FLOW =              1.27


                                    OUT                                        OUT
                                    ---                                        ---
   EVAPOTRANSPIRATION =        3858520.92     EVAPOTRANSPIRATION =          84817.23
           STREAMFLOW =        4669365.80             STREAMFLOW =          96037.49
     GW BOUNDARY FLOW =           7744.50       GW BOUNDARY FLOW =             35.54

   INFLOWS - OUTFLOWS =        4974177.58     INFLOWS - OUTFLOWS =        -180888.99
             --------                                   --------

 TOTAL STORAGE CHANGE =        5038788.54         STORAGE CHANGE =        -173266.04
       --------------                             --------------
         LAND SURFACE =        1737575.88           LAND SURFACE =        -184922.32
            SOIL ZONE =        5833212.48              SOIL ZONE =           3001.59
     UNSATURATED ZONE =       -3090388.03       UNSATURATED ZONE =           8382.20
       SATURATED ZONE =         558388.20         SATURATED ZONE =            272.49

 OVERALL BUDGET ERROR =         -64610.96           BUDGET ERROR =          -7622.95

  ***WARNING, FLUX RATES OFF > 3%

  PERCENT DISCREPANCY =             -0.48    PERCENT DISCREPANCY =             -4.30



1
 SUMMARY VOLUMETRIC BUDGET FOR GSFLOW 
 DATE: 05 12 1991              CUMULATIVE TIME STEP:      12
 MODFLOW STRESS PERIOD      9     CURRENT TIME STEP:     224     ITERATIONS:       6

 -----------------------------------------------------------------------------------

   CUMULATIVE VOLUMES               L**3   RATES FOR THIS TIME STEP           L**3/T
   ------------------                      ------------------------

                                     IN                                         IN
                                     --                                         --
        PRECIPITATION =        1.4029D+07          PRECIPITATION =                  
           STREAMFLOW =                               STREAMFLOW =                  
     GW BOUNDARY FLOW =            109.71       GW BOUNDARY FLOW =              1.31


                                    OUT                                        OUT
                                    ---                                        ---
   EVAPOTRANSPIRATION =        4228449.87     EVAPOTRANSPIRATION =          62594.93
           STREAMFLOW =        5311723.63             STREAMFLOW =          95729.24
     GW BOUNDARY FLOW =           7992.20       GW BOUNDARY FLOW =             35.35

   INFLOWS - OUTFLOWS =        4481166.17     INFLOWS - OUTFLOWS =        -158358.22
             --------                                   --------

 TOTAL STORAGE CHANGE =        4597846.66         STORAGE CHANGE =        -150917.95
       --------------                             --------------
         LAND SURFACE =        1228262.74           LAND SURFACE =        -215603.20
            SOIL ZONE =        5843149.03              SOIL ZONE =          56612.68
     UNSATURATED ZONE =       -3024042.50       UNSATURATED ZONE =           9215.66
       SATURATED ZONE =         550477.38         SATURATED ZONE =          -1143.09

 OVERALL BUDGET ERROR =        -116680.49           BUDGET ERROR =          -7440.27

  ***WARNING, FLUX RATES OFF > 3%

  PERCENT DISCREPANCY =             -0.83    PERCENT DISCREPANCY =             -4.81



1
 SUMMARY VOLUMETRIC BUDGET FOR GSFLOW 
 DATE: 05 19 1991              CUMULATIVE TIME STEP:      19
 MODFLOW STRESS PERIOD      9     CURRENT TIME STEP:     231     ITERATIONS:       6

 -----------------------------------------------------------------------------------

   CUMULATIVE VOLUMES               L**3   RATES FOR THIS TIME STEP           L**3/T
   ------------------                      ------------------------

                                     IN                                         IN
                                     --                                         --
        PRECIPITATION =        1.4365D+07          PRECIPITATION =                  
           STREAMFLOW =                               STREAMFLOW =                  
     GW BOUNDARY FLOW =            119.02       GW BOUNDARY FLOW =              1.35


                                    OUT                                        OUT
                                    ---                                        ---
   EVAPOTRANSPIRATION =        4628558.71     EVAPOTRANSPIRATION =          17977.42
           STREAMFLOW =        5919817.80             STREAMFLOW =          77387.32
     GW BOUNDARY FLOW =           8238.26       GW BOUNDARY FLOW =             34.96

   INFLOWS - OUTFLOWS =        3808882.55     INFLOWS - OUTFLOWS =         -95398.35
             --------                                   --------

 TOTAL STORAGE CHANGE =        3977925.03         STORAGE CHANGE =         -87866.37
       --------------                             --------------
         LAND SURFACE =         710055.96           LAND SURFACE =         -20899.31
            SOIL ZONE =        5689959.71              SOIL ZONE =         -73090.43
     UNSATURATED ZONE =       -2963208.18       UNSATURATED ZONE =           7653.42
       SATURATED ZONE =         541117.55         SATURATED ZONE =          -1530.05

 OVERALL BUDGET ERROR =        -169042.48           BUDGET ERROR =          -7531.98

  ***WARNING, FLUX RATES OFF > 3%

  PERCENT DISCREPANCY =             -1.17    PERCENT DISCREPANCY =             -8.22



1
 SUMMARY VOLUMETRIC BUDGET FOR GSFLOW 
 DATE: 05 26 1991              CUMULATIVE TIME STEP:      26
 MODFLOW STRESS PERIOD      9     CURRENT TIME STEP:     238     ITERATIONS:       7

 -----------------------------------------------------------------------------------

   CUMULATIVE VOLUMES               L**3   RATES FOR THIS TIME STEP           L**3/T
   ------------------                      ------------------------

                                     IN                                         IN
                                     --                                         --
        PRECIPITATION =        1.4426D+07          PRECIPITATION =                  
           STREAMFLOW =                               STREAMFLOW =                  
     GW BOUNDARY FLOW =            128.59       GW BOUNDARY FLOW =              1.38


                                    OUT                                        OUT
                                    ---                                        ---
   EVAPOTRANSPIRATION =        5275914.10     EVAPOTRANSPIRATION =          71093.69
           STREAMFLOW =        6389807.44             STREAMFLOW =          51906.77
     GW BOUNDARY FLOW =           8481.33       GW BOUNDARY FLOW =             34.43

   INFLOWS - OUTFLOWS =        2752423.33     INFLOWS - OUTFLOWS =        -123033.51
             --------                                   --------

 TOTAL STORAGE CHANGE =        2961928.44         STORAGE CHANGE =        -118698.69
       --------------                             --------------
         LAND SURFACE =         283723.71           LAND SURFACE =         -27810.11
            SOIL ZONE =        5071921.91              SOIL ZONE =         -91958.04
     UNSATURATED ZONE =       -2923651.61       UNSATURATED ZONE =           2886.70
       SATURATED ZONE =         529934.42         SATURATED ZONE =          -1817.24

 OVERALL BUDGET ERROR =        -209505.11           BUDGET ERROR =          -4334.82

  ***WARNING, FLUX RATES OFF > 3%

  PERCENT DISCREPANCY =             -1.44    PERCENT DISCREPANCY =             -3.59



1
 SUMMARY VOLUMETRIC BUDGET FOR GSFLOW 
 DATE: 06 02 1991              CUMULATIVE TIME STEP:       2
 MODFLOW STRESS PERIOD     10     CURRENT TIME STEP:     245     ITERATIONS:       6

 -----------------------------------------------------------------------------------

   CUMULATIVE VOLUMES               L**3   RATES FOR THIS TIME STEP           L**3/T
   ------------------                      ------------------------

                                     IN                                         IN
                                     --                                         --
        PRECIPITATION =        1.4671D+07          PRECIPITATION =                  
           STREAMFLOW =                               STREAMFLOW =                  
     GW BOUNDARY FLOW =            138.44       GW BOUNDARY FLOW =              1.42


                                    OUT                                        OUT
                                    ---                                        ---
   EVAPOTRANSPIRATION =        5820801.60     EVAPOTRANSPIRATION =         119337.77
           STREAMFLOW =        6706416.74             STREAMFLOW =          40008.79
     GW BOUNDARY FLOW =           8720.97       GW BOUNDARY FLOW =             34.08

   INFLOWS - OUTFLOWS =        2135173.92     INFLOWS - OUTFLOWS =        -159379.22
             --------                                   --------

 TOTAL STORAGE CHANGE =        2366043.45         STORAGE CHANGE =        -156241.14
       --------------                             --------------
         LAND SURFACE =         133141.95           LAND SURFACE =         -21748.77
            SOIL ZONE =        4632988.24              SOIL ZONE =        -132453.86
     UNSATURATED ZONE =       -2915130.91       UNSATURATED ZONE =            305.16
       SATURATED ZONE =         515044.18         SATURATED ZONE =          -2343.67

 OVERALL BUDGET ERROR =        -230869.53           BUDGET ERROR =          -3138.07


  PERCENT DISCREPANCY =             -1.56    PERCENT DISCREPANCY =             -1.99



1
 SUMMARY VOLUMETRIC BUDGET FOR GSFLOW 
 DATE: 06 09 1991              CUMULATIVE TIME STEP:       9
 MODFLOW STRESS PERIOD     10     CURRENT TIME STEP:     252     ITERATIONS:       6

 -----------------------------------------------------------------------------------

   CUMULATIVE VOLUMES               L**3   RATES FOR THIS TIME STEP           L**3/T
   ------------------                      ------------------------

                                     IN                                         IN
                                     --                                         --
        PRECIPITATION =        1.4671D+07          PRECIPITATION =                  
           STREAMFLOW =                               STREAMFLOW =                  
     GW BOUNDARY FLOW =            148.59       GW BOUNDARY FLOW =              1.47


                                    OUT                                        OUT
                                    ---                                        ---
   EVAPOTRANSPIRATION =        6536171.38     EVAPOTRANSPIRATION =         166054.34
           STREAMFLOW =        6864639.72             STREAMFLOW =          25865.44
     GW BOUNDARY FLOW =           8956.52       GW BOUNDARY FLOW =             33.66

   INFLOWS - OUTFLOWS =        1261355.77     INFLOWS - OUTFLOWS =        -191951.97
             --------                                   --------

 TOTAL STORAGE CHANGE =        1434498.76         STORAGE CHANGE =        -189981.06
       --------------                             --------------
         LAND SURFACE =          42792.54           LAND SURFACE =         -14518.27
            SOIL ZONE =        3836513.73              SOIL ZONE =        -169369.66
     UNSATURATED ZONE =       -2928022.75       UNSATURATED ZONE =          -3412.04
       SATURATED ZONE =         483215.24         SATURATED ZONE =          -2681.08

 OVERALL BUDGET ERROR =        -173142.98           BUDGET ERROR =          -1970.90


  PERCENT DISCREPANCY =             -1.17    PERCENT DISCREPANCY =             -1.03



1
 SUMMARY VOLUMETRIC BUDGET FOR GSFLOW 
 DATE: 06 16 1991              CUMULATIVE TIME STEP:      16
 MODFLOW STRESS PERIOD     10     CURRENT TIME STEP:     259     ITERATIONS:      12

 -----------------------------------------------------------------------------------

   CUMULATIVE VOLUMES               L**3   RATES FOR THIS TIME STEP           L**3/T
   ------------------                      ------------------------

                                     IN                                         IN
                                     --                                         --
        PRECIPITATION =        1.4671D+07          PRECIPITATION =                  
           STREAMFLOW =                               STREAMFLOW =                  
     GW BOUNDARY FLOW =            159.06       GW BOUNDARY FLOW =              1.51


                                    OUT                                        OUT
                                    ---                                        ---
   EVAPOTRANSPIRATION =        7493941.42     EVAPOTRANSPIRATION =         107899.61
           STREAMFLOW =        6943770.88             STREAMFLOW =           4862.16
     GW BOUNDARY FLOW =           9187.97       GW BOUNDARY FLOW =             32.82

   INFLOWS - OUTFLOWS =         224233.58     INFLOWS - OUTFLOWS =        -112793.07
             --------                                   --------

 TOTAL STORAGE CHANGE =         339182.29         STORAGE CHANGE =        -127345.79
       --------------                             --------------
         LAND SURFACE =           5456.07           LAND SURFACE =          -1579.06
            SOIL ZONE =        2874409.17              SOIL ZONE =        -105587.35
     UNSATURATED ZONE =       -2980655.02       UNSATURATED ZONE =         -11087.95
       SATURATED ZONE =         439972.08         SATURATED ZONE =          -9091.44

 OVERALL BUDGET ERROR =        -114948.71           BUDGET ERROR =          14552.72

  ***CAUTION, FLUX RATES OFF > 10%

  PERCENT DISCREPANCY =             -0.78    PERCENT DISCREPANCY =             12.12



1
 SUMMARY VOLUMETRIC BUDGET FOR GSFLOW 
 DATE: 06 23 1991              CUMULATIVE TIME STEP:      23
 MODFLOW STRESS PERIOD     10     CURRENT TIME STEP:     266     ITERATIONS:       6

 -----------------------------------------------------------------------------------

   CUMULATIVE VOLUMES               L**3   RATES FOR THIS TIME STEP           L**3/T
   ------------------                      ------------------------

                                     IN                                         IN
                                     --                                         --
        PRECIPITATION =        1.4671D+07          PRECIPITATION =                  
           STREAMFLOW =                               STREAMFLOW =                  
     GW BOUNDARY FLOW =            169.84       GW BOUNDARY FLOW =              1.56


                                    OUT                                        OUT
                                    ---                                        ---
   EVAPOTRANSPIRATION =        7972168.96     EVAPOTRANSPIRATION =          34180.57
           STREAMFLOW =        7023199.99             STREAMFLOW =          14049.45
     GW BOUNDARY FLOW =           9418.42       GW BOUNDARY FLOW =             32.97

   INFLOWS - OUTFLOWS =        -333642.72     INFLOWS - OUTFLOWS =         -48261.43
             --------                                   --------

 TOTAL STORAGE CHANGE =        -237963.89         STORAGE CHANGE =         -47420.37
       --------------                             --------------
         LAND SURFACE =           1456.34           LAND SURFACE =           -205.23
            SOIL ZONE =        2424720.37              SOIL ZONE =         -32647.79
     UNSATURATED ZONE =       -3061409.48       UNSATURATED ZONE =          -9574.70
       SATURATED ZONE =         397268.89         SATURATED ZONE =          -4992.65

 OVERALL BUDGET ERROR =         -95678.83           BUDGET ERROR =           -841.06


  PERCENT DISCREPANCY =             -0.64    PERCENT DISCREPANCY =             -1.76



1
 SUMMARY VOLUMETRIC BUDGET FOR GSFLOW 
 DATE: 06 30 1991              CUMULATIVE TIME STEP:      30
 MODFLOW STRESS PERIOD     10     CURRENT TIME STEP:     273     ITERATIONS:       6

 -----------------------------------------------------------------------------------

[...]
   EVAPOTRANSPIRATION =        1.4067D+08     EVAPOTRANSPIRATION =          14299.44
           STREAMFLOW =        1.2521D+08             STREAMFLOW =            543.05
     GW BOUNDARY FLOW =          94778.99       GW BOUNDARY FLOW =             21.64

   INFLOWS - OUTFLOWS =       -2.5961D+07     INFLOWS - OUTFLOWS =         -14857.92
             --------                                   --------

 TOTAL STORAGE CHANGE =       -2.4212D+07         STORAGE CHANGE =         -16117.46
       --------------                             --------------
         LAND SURFACE =                             LAND SURFACE =                  
            SOIL ZONE =        -267776.00              SOIL ZONE =          -2533.56
     UNSATURATED ZONE =         345444.00       UNSATURATED ZONE =          -1482.52
       SATURATED ZONE =       -2.4289D+07         SATURATED ZONE =         -12101.38

 OVERALL BUDGET ERROR =       -1748918.03           BUDGET ERROR =           1259.55

  ***WARNING, FLUX RATES OFF > 3%

  PERCENT DISCREPANCY =             -0.66    PERCENT DISCREPANCY =              8.13



1
 SUMMARY VOLUMETRIC BUDGET FOR GSFLOW 
 DATE: 09 03 2000              CUMULATIVE TIME STEP:       3
 MODFLOW STRESS PERIOD    121     CURRENT TIME STEP:    3626     ITERATIONS:       7

 -----------------------------------------------------------------------------------

   CUMULATIVE VOLUMES               L**3   RATES FOR THIS TIME STEP           L**3/T
   ------------------                      ------------------------

                                     IN                                         IN
                                     --                                         --
        PRECIPITATION =        2.4013D+08          PRECIPITATION =                  
           STREAMFLOW =                               STREAMFLOW =                  
     GW BOUNDARY FLOW =          15351.69       GW BOUNDARY FLOW =              6.22


                                    OUT                                        OUT
                                    ---                                        ---
   EVAPOTRANSPIRATION =        1.4075D+08     EVAPOTRANSPIRATION =          28674.31
           STREAMFLOW =        1.2523D+08             STREAMFLOW =           6534.60
     GW BOUNDARY FLOW =          94932.19       GW BOUNDARY FLOW =             22.22

   INFLOWS - OUTFLOWS =       -2.5931D+07     INFLOWS - OUTFLOWS =         -35224.91
             --------                                   --------

 TOTAL STORAGE CHANGE =       -2.4187D+07         STORAGE CHANGE =         -35147.47
       --------------                             --------------
         LAND SURFACE =          24011.12           LAND SURFACE =         -28550.39
            SOIL ZONE =        -197910.19              SOIL ZONE =           -151.48
     UNSATURATED ZONE =         334054.49       UNSATURATED ZONE =          -1479.37
       SATURATED ZONE =       -2.4347D+07         SATURATED ZONE =          -4966.23

 OVERALL BUDGET ERROR =       -1743785.48           BUDGET ERROR =            -77.44


  PERCENT DISCREPANCY =             -0.66    PERCENT DISCREPANCY =             -0.22



1
 SUMMARY VOLUMETRIC BUDGET FOR GSFLOW 
 DATE: 09 10 2000              CUMULATIVE TIME STEP:      10
 MODFLOW STRESS PERIOD    121     CURRENT TIME STEP:    3633     ITERATIONS:      14

 -----------------------------------------------------------------------------------

   CUMULATIVE VOLUMES               L**3   RATES FOR THIS TIME STEP           L**3/T
   ------------------                      ------------------------

                                     IN                                         IN
                                     --                                         --
        PRECIPITATION =        2.4013D+08          PRECIPITATION =                  
           STREAMFLOW =                               STREAMFLOW =                  
     GW BOUNDARY FLOW =          15395.26       GW BOUNDARY FLOW =              6.23


                                    OUT                                        OUT
                                    ---                                        ---
   EVAPOTRANSPIRATION =        1.4083D+08     EVAPOTRANSPIRATION =           8917.56
           STREAMFLOW =        1.2526D+08             STREAMFLOW =           4325.75
     GW BOUNDARY FLOW =          95086.33       GW BOUNDARY FLOW =             21.99

   INFLOWS - OUTFLOWS =       -2.6046D+07     INFLOWS - OUTFLOWS =         -13259.07
             --------                                   --------

 TOTAL STORAGE CHANGE =       -2.4300D+07         STORAGE CHANGE =         -13005.89
       --------------                             --------------
         LAND SURFACE =                             LAND SURFACE =                  
            SOIL ZONE =        -215139.21              SOIL ZONE =          -2571.93
     UNSATURATED ZONE =         323153.01       UNSATURATED ZONE =          -1451.69
       SATURATED ZONE =       -2.4408D+07         SATURATED ZONE =          -8982.28

 OVERALL BUDGET ERROR =       -1745481.34           BUDGET ERROR =           -253.18


  PERCENT DISCREPANCY =             -0.66    PERCENT DISCREPANCY =             -1.93



1
 SUMMARY VOLUMETRIC BUDGET FOR GSFLOW 
 DATE: 09 17 2000              CUMULATIVE TIME STEP:      17
 MODFLOW STRESS PERIOD    121     CURRENT TIME STEP:    3640     ITERATIONS:       8

 -----------------------------------------------------------------------------------

   CUMULATIVE VOLUMES               L**3   RATES FOR THIS TIME STEP           L**3/T
   ------------------                      ------------------------

                                     IN                                         IN
                                     --                                         --
        PRECIPITATION =        2.4013D+08          PRECIPITATION =                  
           STREAMFLOW =                               STREAMFLOW =                  
     GW BOUNDARY FLOW =          15438.88       GW BOUNDARY FLOW =              6.23


                                    OUT                                        OUT
                                    ---                                        ---
   EVAPOTRANSPIRATION =        1.4091D+08     EVAPOTRANSPIRATION =          10035.59
           STREAMFLOW =        1.2529D+08             STREAMFLOW =           4045.27
     GW BOUNDARY FLOW =          95239.84       GW BOUNDARY FLOW =             21.94

   INFLOWS - OUTFLOWS =       -2.6149D+07     INFLOWS - OUTFLOWS =         -14096.57
             --------                                   --------

 TOTAL STORAGE CHANGE =       -2.4401D+07         STORAGE CHANGE =         -13925.92
       --------------                             --------------
         LAND SURFACE =                             LAND SURFACE =                  
            SOIL ZONE =        -235199.12              SOIL ZONE =          -2499.53
     UNSATURATED ZONE =         312628.43       UNSATURATED ZONE =          -1508.84
       SATURATED ZONE =       -2.4479D+07         SATURATED ZONE =          -9917.55

 OVERALL BUDGET ERROR =       -1747121.08           BUDGET ERROR =           -170.64


  PERCENT DISCREPANCY =             -0.66    PERCENT DISCREPANCY =             -1.22



1
 SUMMARY VOLUMETRIC BUDGET FOR GSFLOW 
 DATE: 09 24 2000              CUMULATIVE TIME STEP:      24
 MODFLOW STRESS PERIOD    121     CURRENT TIME STEP:    3647     ITERATIONS:       5

 -----------------------------------------------------------------------------------

   CUMULATIVE VOLUMES               L**3   RATES FOR THIS TIME STEP           L**3/T
   ------------------                      ------------------------

                                     IN                                         IN
                                     --                                         --
        PRECIPITATION =        2.4013D+08          PRECIPITATION =                  
           STREAMFLOW =                               STREAMFLOW =                  
     GW BOUNDARY FLOW =          15482.55       GW BOUNDARY FLOW =              6.24


                                    OUT                                        OUT
                                    ---                                        ---
   EVAPOTRANSPIRATION =        1.4096D+08     EVAPOTRANSPIRATION =           5115.60
           STREAMFLOW =        1.2532D+08             STREAMFLOW =           5268.90
     GW BOUNDARY FLOW =          95393.79       GW BOUNDARY FLOW =             22.08

   INFLOWS - OUTFLOWS =       -2.6235D+07     INFLOWS - OUTFLOWS =         -10400.34
             --------                                   --------

 TOTAL STORAGE CHANGE =       -2.4487D+07         STORAGE CHANGE =         -10296.17
       --------------                             --------------
         LAND SURFACE =                             LAND SURFACE =                  
            SOIL ZONE =        -247636.47              SOIL ZONE =          -1082.94
     UNSATURATED ZONE =         302382.58       UNSATURATED ZONE =          -1479.89
       SATURATED ZONE =       -2.4541D+07         SATURATED ZONE =          -7733.33

 OVERALL BUDGET ERROR =       -1748056.15           BUDGET ERROR =           -104.18


  PERCENT DISCREPANCY =             -0.66    PERCENT DISCREPANCY =             -1.01



1
 SUMMARY VOLUMETRIC BUDGET FOR GSFLOW 
 DATE: 10 01 2000              CUMULATIVE TIME STEP:       1
 MODFLOW STRESS PERIOD    122     CURRENT TIME STEP:    3654     ITERATIONS:      35

 -----------------------------------------------------------------------------------

   CUMULATIVE VOLUMES               L**3   RATES FOR THIS TIME STEP           L**3/T
   ------------------                      ------------------------

                                     IN                                         IN
                                     --                                         --
        PRECIPITATION =        2.4013D+08          PRECIPITATION =                  
           STREAMFLOW =                               STREAMFLOW =                  
     GW BOUNDARY FLOW =          15526.27       GW BOUNDARY FLOW =              6.25


                                    OUT                                        OUT
                                    ---                                        ---
   EVAPOTRANSPIRATION =        1.4102D+08     EVAPOTRANSPIRATION =           8234.56
           STREAMFLOW =        1.2535D+08             STREAMFLOW =           4344.30
     GW BOUNDARY FLOW =          95547.66       GW BOUNDARY FLOW =             21.98

   INFLOWS - OUTFLOWS =       -2.6325D+07     INFLOWS - OUTFLOWS =         -12594.60
             --------                                   --------

 TOTAL STORAGE CHANGE =       -2.4576D+07         STORAGE CHANGE =         -12484.54
       --------------                             --------------
         LAND SURFACE =                             LAND SURFACE =                  
            SOIL ZONE =        -259660.68              SOIL ZONE =          -1568.41
     UNSATURATED ZONE =         292147.75       UNSATURATED ZONE =          -1434.06
       SATURATED ZONE =       -2.4608D+07         SATURATED ZONE =          -9482.07

 OVERALL BUDGET ERROR =       -1748928.40           BUDGET ERROR =           -110.06


  PERCENT DISCREPANCY =             -0.66    PERCENT DISCREPANCY =             -0.88



1
 SUMMARY VOLUMETRIC BUDGET FOR GSFLOW 
 DATE: 10 08 2000              CUMULATIVE TIME STEP:       8
 MODFLOW STRESS PERIOD    122     CURRENT TIME STEP:    3661     ITERATIONS:       4

 -----------------------------------------------------------------------------------

   CUMULATIVE VOLUMES               L**3   RATES FOR THIS TIME STEP           L**3/T
   ------------------                      ------------------------

                                     IN                                         IN
                                     --                                         --
        PRECIPITATION =        2.4013D+08          PRECIPITATION =                  
           STREAMFLOW =                               STREAMFLOW =                  
     GW BOUNDARY FLOW =          15570.03       GW BOUNDARY FLOW =              6.25


                                    OUT                                        OUT
                                    ---                                        ---
   EVAPOTRANSPIRATION =        1.4107D+08     EVAPOTRANSPIRATION =           6894.96
           STREAMFLOW =        1.2539D+08             STREAMFLOW =           4723.93
     GW BOUNDARY FLOW =          95701.74       GW BOUNDARY FLOW =             22.02

   INFLOWS - OUTFLOWS =       -2.6407D+07     INFLOWS - OUTFLOWS =         -11634.65
             --------                                   --------

 TOTAL STORAGE CHANGE =       -2.4658D+07         STORAGE CHANGE =         -11524.91
       --------------                             --------------
         LAND SURFACE =                             LAND SURFACE =                  
            SOIL ZONE =        -268521.44              SOIL ZONE =          -1155.97
     UNSATURATED ZONE =         278943.94       UNSATURATED ZONE =          -1433.73
       SATURATED ZONE =       -2.4668D+07         SATURATED ZONE =          -8935.21

 OVERALL BUDGET ERROR =       -1749623.25           BUDGET ERROR =           -109.75


  PERCENT DISCREPANCY =             -0.66    PERCENT DISCREPANCY =             -0.95



1
 SUMMARY VOLUMETRIC BUDGET FOR GSFLOW 
 DATE: 10 15 2000              CUMULATIVE TIME STEP:      15
 MODFLOW STRESS PERIOD    122     CURRENT TIME STEP:    3668     ITERATIONS:       7

 -----------------------------------------------------------------------------------

   CUMULATIVE VOLUMES               L**3   RATES FOR THIS TIME STEP           L**3/T
   ------------------                      ------------------------

                                     IN                                         IN
                                     --                                         --
        PRECIPITATION =        2.4034D+08          PRECIPITATION =                  
           STREAMFLOW =                               STREAMFLOW =                  
     GW BOUNDARY FLOW =          15613.83       GW BOUNDARY FLOW =              6.26


                                    OUT                                        OUT
                                    ---                                        ---
   EVAPOTRANSPIRATION =        1.4115D+08     EVAPOTRANSPIRATION =           7171.12
           STREAMFLOW =        1.2543D+08             STREAMFLOW =           6117.07
     GW BOUNDARY FLOW =          95857.32       GW BOUNDARY FLOW =             22.19

   INFLOWS - OUTFLOWS =       -2.6317D+07     INFLOWS - OUTFLOWS =         -13304.12
             --------                                   --------

 TOTAL STORAGE CHANGE =       -2.4568D+07         STORAGE CHANGE =         -13220.54
       --------------                             --------------
         LAND SURFACE =            350.35           LAND SURFACE =          -2571.12
            SOIL ZONE =        -127018.05              SOIL ZONE =          -1909.83
     UNSATURATED ZONE =         269193.77       UNSATURATED ZONE =          -1428.65
       SATURATED ZONE =       -2.4710D+07         SATURATED ZONE =          -7310.94

 OVERALL BUDGET ERROR =       -1748887.18           BUDGET ERROR =            -83.58


  PERCENT DISCREPANCY =             -0.66    PERCENT DISCREPANCY =             -0.63



1
 SUMMARY VOLUMETRIC BUDGET FOR GSFLOW 
 DATE: 10 22 2000              CUMULATIVE TIME STEP:      22
 MODFLOW STRESS PERIOD    122     CURRENT TIME STEP:    3675     ITERATIONS:       5

 -----------------------------------------------------------------------------------

   CUMULATIVE VOLUMES               L**3   RATES FOR THIS TIME STEP           L**3/T
   ------------------                      ------------------------

                                     IN                                         IN
                                     --                                         --
        PRECIPITATION =        2.4039D+08          PRECIPITATION =                  
           STREAMFLOW =                               STREAMFLOW =                  
     GW BOUNDARY FLOW =          15657.66       GW BOUNDARY FLOW =              6.26


                                    OUT                                        OUT
                                    ---                                        ---
   EVAPOTRANSPIRATION =        1.4119D+08     EVAPOTRANSPIRATION =           8718.19
           STREAMFLOW =        1.2548D+08             STREAMFLOW =           7147.09
     GW BOUNDARY FLOW =          96012.80       GW BOUNDARY FLOW =             22.32

   INFLOWS - OUTFLOWS =       -2.6359D+07     INFLOWS - OUTFLOWS =         -15881.33
             --------                                   --------

 TOTAL STORAGE CHANGE =       -2.4609D+07         STORAGE CHANGE =         -15823.80
       --------------                             --------------
         LAND SURFACE =          28297.52           LAND SURFACE =          -8673.07
            SOIL ZONE =        -136768.84              SOIL ZONE =            -27.62
     UNSATURATED ZONE =         259138.10       UNSATURATED ZONE =          -1406.66
       SATURATED ZONE =       -2.4760D+07         SATURATED ZONE =          -5716.45

 OVERALL BUDGET ERROR =       -1749547.78           BUDGET ERROR =            -57.54


  PERCENT DISCREPANCY =             -0.66    PERCENT DISCREPANCY =             -0.36



1
 SUMMARY VOLUMETRIC BUDGET FOR GSFLOW 
 DATE: 10 29 2000              CUMULATIVE TIME STEP:      29
 MODFLOW STRESS PERIOD    122     CURRENT TIME STEP:    3682     ITERATIONS:       5

 -----------------------------------------------------------------------------------

   CUMULATIVE VOLUMES               L**3   RATES FOR THIS TIME STEP           L**3/T
   ------------------                      ------------------------

                                     IN                                         IN
                                     --                                         --
        PRECIPITATION =        2.4111D+08          PRECIPITATION =          24578.20
           STREAMFLOW =                               STREAMFLOW =                  
     GW BOUNDARY FLOW =          15701.52       GW BOUNDARY FLOW =              6.27


                                    OUT                                        OUT
                                    ---                                        ---
   EVAPOTRANSPIRATION =        1.4123D+08     EVAPOTRANSPIRATION =           1236.71
           STREAMFLOW =        1.2552D+08             STREAMFLOW =           7080.57
     GW BOUNDARY FLOW =          96168.95       GW BOUNDARY FLOW =             22.34

   INFLOWS - OUTFLOWS =       -2.5721D+07     INFLOWS - OUTFLOWS =          16244.85
             --------                                   --------

 TOTAL STORAGE CHANGE =       -2.3972D+07         STORAGE CHANGE =          16065.50
       --------------                             --------------
         LAND SURFACE =         569356.28           LAND SURFACE =           9925.66
            SOIL ZONE =          12497.13              SOIL ZONE =          13638.42
     UNSATURATED ZONE =         249417.11       UNSATURATED ZONE =          -1333.22
       SATURATED ZONE =       -2.4804D+07         SATURATED ZONE =          -6165.35

 OVERALL BUDGET ERROR =       -1748265.85           BUDGET ERROR =            179.35


  PERCENT DISCREPANCY =             -0.66    PERCENT DISCREPANCY =              0.73



