1
 SUMMARY VOLUMETRIC BUDGET FOR GSFLOW 
 DATE: 10 07 1990              CUMULATIVE TIME STEP:       7
 MODFLOW STRESS PERIOD      2     CURRENT TIME STEP:       7     ITERATIONS:       7

 -----------------------------------------------------------------------------------

   CUMULATIVE VOLUMES               L**3   RATES FOR THIS TIME STEP           L**3/T
   ------------------                      ------------------------

                                     IN                                         IN
                                     --                                         --
        PRECIPITATION =                            PRECIPITATION =                  
           STREAMFLOW =                               STREAMFLOW =                  
     GW BOUNDARY FLOW =                         GW BOUNDARY FLOW =                  


                                    OUT                                        OUT
                                    ---                                        ---
   EVAPOTRANSPIRATION =         385019.00     EVAPOTRANSPIRATION =          11801.64
           STREAMFLOW =          44249.52             STREAMFLOW =           7980.38
     GW BOUNDARY FLOW =            252.73       GW BOUNDARY FLOW =             36.30

   INFLOWS - OUTFLOWS =        -429521.25     INFLOWS - OUTFLOWS =         -19818.32
             --------                                   --------

 TOTAL STORAGE CHANGE =        -428041.12         STORAGE CHANGE =         -19791.51
       --------------                             --------------
         LAND SURFACE =                             LAND SURFACE =                  
            SOIL ZONE =         -33650.71              SOIL ZONE =           -949.29
     UNSATURATED ZONE =        -502712.71       UNSATURATED ZONE =         -33632.01
       SATURATED ZONE =         108322.30         SATURATED ZONE =          14789.79

 OVERALL BUDGET ERROR =          -1480.13           BUDGET ERROR =            -26.81


  PERCENT DISCREPANCY =             -0.35    PERCENT DISCREPANCY =             -0.14



1
 SUMMARY VOLUMETRIC BUDGET FOR GSFLOW 
 DATE: 10 14 1990              CUMULATIVE TIME STEP:      14
 MODFLOW STRESS PERIOD      2     CURRENT TIME STEP:      14     ITERATIONS:       6

 -----------------------------------------------------------------------------------

   CUMULATIVE VOLUMES               L**3   RATES FOR THIS TIME STEP           L**3/T
   ------------------                      ------------------------

                                     IN                                         IN
                                     --                                         --
        PRECIPITATION =                            PRECIPITATION =                  
           STREAMFLOW =                               STREAMFLOW =                  
     GW BOUNDARY FLOW =                         GW BOUNDARY FLOW =                  


                                    OUT                                        OUT
                                    ---                                        ---
   EVAPOTRANSPIRATION =         665264.26     EVAPOTRANSPIRATION =          42323.76
           STREAMFLOW =          97921.12             STREAMFLOW =           7278.26
     GW BOUNDARY FLOW =            506.54       GW BOUNDARY FLOW =             36.24

   INFLOWS - OUTFLOWS =        -763691.92     INFLOWS - OUTFLOWS =         -49638.26
             --------                                   --------

 TOTAL STORAGE CHANGE =        -761925.69         STORAGE CHANGE =         -49616.98
       --------------                             --------------
         LAND SURFACE =                             LAND SURFACE =                  
            SOIL ZONE =         -58655.50              SOIL ZONE =          -4416.70
     UNSATURATED ZONE =        -877930.97       UNSATURATED ZONE =         -52123.17
       SATURATED ZONE =         174660.77         SATURATED ZONE =           6922.89

 OVERALL BUDGET ERROR =          -1766.23           BUDGET ERROR =            -21.29


  PERCENT DISCREPANCY =             -0.23    PERCENT DISCREPANCY =             -0.04



1
 SUMMARY VOLUMETRIC BUDGET FOR GSFLOW 
 DATE: 10 21 1990              CUMULATIVE TIME STEP:      21
 MODFLOW STRESS PERIOD      2     CURRENT TIME STEP:      21     ITERATIONS:       6

 -----------------------------------------------------------------------------------

   CUMULATIVE VOLUMES               L**3   RATES FOR THIS TIME STEP           L**3/T
   ------------------                      ------------------------

                                     IN                                         IN
                                     --                                         --
        PRECIPITATION =         188432.87          PRECIPITATION =                  
           STREAMFLOW =                               STREAMFLOW =                  
     GW BOUNDARY FLOW =                         GW BOUNDARY FLOW =                  


                                    OUT                                        OUT
                                    ---                                        ---
   EVAPOTRANSPIRATION =         815540.14     EVAPOTRANSPIRATION =          41709.13
           STREAMFLOW =         159590.30             STREAMFLOW =           9991.00
     GW BOUNDARY FLOW =            760.68       GW BOUNDARY FLOW =             36.37

   INFLOWS - OUTFLOWS =        -787458.26     INFLOWS - OUTFLOWS =         -51736.50
             --------                                   --------

 TOTAL STORAGE CHANGE =        -785637.22         STORAGE CHANGE =         -51741.22
       --------------                             --------------
         LAND SURFACE =          18885.57           LAND SURFACE =         -43558.49
            SOIL ZONE =          48184.26              SOIL ZONE =           2052.88
     UNSATURATED ZONE =       -1091888.73       UNSATURATED ZONE =         -21361.06
       SATURATED ZONE =         239181.69         SATURATED ZONE =          11125.45

 OVERALL BUDGET ERROR =          -1821.04           BUDGET ERROR =              4.72


  PERCENT DISCREPANCY =             -0.19    PERCENT DISCREPANCY =              0.01



1
 SUMMARY VOLUMETRIC BUDGET FOR GSFLOW 
 DATE: 10 28 1990              CUMULATIVE TIME STEP:      28
 MODFLOW STRESS PERIOD      2     CURRENT TIME STEP:      28     ITERATIONS:       6

 -----------------------------------------------------------------------------------

   CUMULATIVE VOLUMES               L**3   RATES FOR THIS TIME STEP           L**3/T
   ------------------                      ------------------------

                                     IN                                         IN
                                     --                                         --
        PRECIPITATION =         188432.87          PRECIPITATION =                  
           STREAMFLOW =                               STREAMFLOW =                  
     GW BOUNDARY FLOW =                         GW BOUNDARY FLOW =                  


                                    OUT                                        OUT
                                    ---                                        ---
   EVAPOTRANSPIRATION =         943978.88     EVAPOTRANSPIRATION =          11840.58
           STREAMFLOW =         220048.36             STREAMFLOW =           8786.07
     GW BOUNDARY FLOW =           1013.84       GW BOUNDARY FLOW =             36.12

   INFLOWS - OUTFLOWS =        -976608.21     INFLOWS - OUTFLOWS =         -20662.78
             --------                                   --------

 TOTAL STORAGE CHANGE =        -974774.01         STORAGE CHANGE =         -20664.88
       --------------                             --------------
         LAND SURFACE =                             LAND SURFACE =                  
            SOIL ZONE =          19145.48              SOIL ZONE =          -3436.27
     UNSATURATED ZONE =       -1275335.95       UNSATURATED ZONE =         -23249.90
       SATURATED ZONE =         281416.45         SATURATED ZONE =           6021.29

 OVERALL BUDGET ERROR =          -1834.20           BUDGET ERROR =              2.11


  PERCENT DISCREPANCY =             -0.16    PERCENT DISCREPANCY =              0.01



1
 SUMMARY VOLUMETRIC BUDGET FOR GSFLOW 
 DATE: 11 04 1990              CUMULATIVE TIME STEP:       4
 MODFLOW STRESS PERIOD      3     CURRENT TIME STEP:      35     ITERATIONS:       6

 -----------------------------------------------------------------------------------

   CUMULATIVE VOLUMES               L**3   RATES FOR THIS TIME STEP           L**3/T
   ------------------                      ------------------------

                                     IN                                         IN
                                     --                                         --
        PRECIPITATION =         703113.06          PRECIPITATION =                  
           STREAMFLOW =                               STREAMFLOW =                  
     GW BOUNDARY FLOW =                         GW BOUNDARY FLOW =                  


                                    OUT                                        OUT
                                    ---                                        ---
   EVAPOTRANSPIRATION =        1004583.21     EVAPOTRANSPIRATION =          26280.47
           STREAMFLOW =         289307.73             STREAMFLOW =          10383.46
     GW BOUNDARY FLOW =           1266.85       GW BOUNDARY FLOW =             36.13

   INFLOWS - OUTFLOWS =        -592044.73     INFLOWS - OUTFLOWS =         -36700.06
             --------                                   --------

 TOTAL STORAGE CHANGE =        -590232.09         STORAGE CHANGE =         -36704.71
       --------------                             --------------
         LAND SURFACE =         132159.65           LAND SURFACE =        -160480.33
            SOIL ZONE =         356552.92              SOIL ZONE =         134353.79
     UNSATURATED ZONE =       -1420989.44       UNSATURATED ZONE =         -20047.25
       SATURATED ZONE =         342044.78         SATURATED ZONE =           9469.08

 OVERALL BUDGET ERROR =          -1812.64           BUDGET ERROR =              4.65


  PERCENT DISCREPANCY =             -0.14    PERCENT DISCREPANCY =              0.01



1
 SUMMARY VOLUMETRIC BUDGET FOR GSFLOW 
 DATE: 11 11 1990              CUMULATIVE TIME STEP:      11
 MODFLOW STRESS PERIOD      3     CURRENT TIME STEP:      42     ITERATIONS:       6

 -----------------------------------------------------------------------------------

   CUMULATIVE VOLUMES               L**3   RATES FOR THIS TIME STEP           L**3/T
   ------------------                      ------------------------

                                     IN                                         IN
                                     --                                         --
        PRECIPITATION =         703113.06          PRECIPITATION =                  
           STREAMFLOW =                               STREAMFLOW =                  
     GW BOUNDARY FLOW =                         GW BOUNDARY FLOW =                  


                                    OUT                                        OUT
                                    ---                                        ---
   EVAPOTRANSPIRATION =        1081776.55     EVAPOTRANSPIRATION =          12147.20
           STREAMFLOW =         358972.18             STREAMFLOW =           9471.82
     GW BOUNDARY FLOW =           1518.91       GW BOUNDARY FLOW =             35.92

   INFLOWS - OUTFLOWS =        -739154.58     INFLOWS - OUTFLOWS =         -21654.94
             --------                                   --------

 TOTAL STORAGE CHANGE =        -737362.65         STORAGE CHANGE =         -21657.63
       --------------                             --------------
         LAND SURFACE =            595.09           LAND SURFACE =          -1416.54
            SOIL ZONE =         429673.48              SOIL ZONE =          -5363.92
     UNSATURATED ZONE =       -1560075.33       UNSATURATED ZONE =         -19837.70
       SATURATED ZONE =         392444.10         SATURATED ZONE =           4960.53

 OVERALL BUDGET ERROR =          -1791.93           BUDGET ERROR =              2.69


  PERCENT DISCREPANCY =             -0.12    PERCENT DISCREPANCY =              0.01



1
 SUMMARY VOLUMETRIC BUDGET FOR GSFLOW 
 DATE: 11 18 1990              CUMULATIVE TIME STEP:      18
 MODFLOW STRESS PERIOD      3     CURRENT TIME STEP:      49     ITERATIONS:       6

 -----------------------------------------------------------------------------------

   CUMULATIVE VOLUMES               L**3   RATES FOR THIS TIME STEP           L**3/T
   ------------------                      ------------------------

                                     IN                                         IN
                                     --                                         --
        PRECIPITATION =         747883.35          PRECIPITATION =                  
           STREAMFLOW =                               STREAMFLOW =                  
     GW BOUNDARY FLOW =                         GW BOUNDARY FLOW =                  


                                    OUT                                        OUT
                                    ---                                        ---
   EVAPOTRANSPIRATION =        1154234.36     EVAPOTRANSPIRATION =           5053.71
           STREAMFLOW =         429515.50             STREAMFLOW =          10518.13
     GW BOUNDARY FLOW =           1770.19       GW BOUNDARY FLOW =             35.88

   INFLOWS - OUTFLOWS =        -837636.69     INFLOWS - OUTFLOWS =         -15607.72
             --------                                   --------

 TOTAL STORAGE CHANGE =        -835860.41         STORAGE CHANGE =         -15610.89
       --------------                             --------------
         LAND SURFACE =           7868.08           LAND SURFACE =          -3691.47
            SOIL ZONE =         412222.13              SOIL ZONE =           -675.27
     UNSATURATED ZONE =       -1693235.73       UNSATURATED ZONE =         -18576.76
       SATURATED ZONE =         437285.11         SATURATED ZONE =           7332.61

 OVERALL BUDGET ERROR =          -1776.28           BUDGET ERROR =              3.17


  PERCENT DISCREPANCY =             -0.11    PERCENT DISCREPANCY =              0.02



1
 SUMMARY VOLUMETRIC BUDGET FOR GSFLOW 
 DATE: 11 25 1990              CUMULATIVE TIME STEP:      25
 MODFLOW STRESS PERIOD      3     CURRENT TIME STEP:      56     ITERATIONS:       6

 -----------------------------------------------------------------------------------

   CUMULATIVE VOLUMES               L**3   RATES FOR THIS TIME STEP           L**3/T
   ------------------                      ------------------------

                                     IN                                         IN
                                     --                                         --
        PRECIPITATION =        1009043.38          PRECIPITATION =         186542.88
           STREAMFLOW =                               STREAMFLOW =                  
     GW BOUNDARY FLOW =                         GW BOUNDARY FLOW =                  


                                    OUT                                        OUT
                                    ---                                        ---
   EVAPOTRANSPIRATION =        1214663.49     EVAPOTRANSPIRATION =           3758.11
           STREAMFLOW =         504363.28             STREAMFLOW =          10608.35
     GW BOUNDARY FLOW =           2021.11       GW BOUNDARY FLOW =             35.79

   INFLOWS - OUTFLOWS =        -712004.50     INFLOWS - OUTFLOWS =         172140.63
             --------                                   --------

 TOTAL STORAGE CHANGE =        -710246.82         STORAGE CHANGE =         172138.47
       --------------                             --------------
         LAND SURFACE =          86180.68           LAND SURFACE =          69567.13
            SOIL ZONE =         537022.44              SOIL ZONE =         114165.45
     UNSATURATED ZONE =       -1820786.55       UNSATURATED ZONE =         -17911.21
       SATURATED ZONE =         487336.62         SATURATED ZONE =           6317.10

 OVERALL BUDGET ERROR =          -1757.68           BUDGET ERROR =              2.16


  PERCENT DISCREPANCY =             -0.10    PERCENT DISCREPANCY =              0.00



1
 SUMMARY VOLUMETRIC BUDGET FOR GSFLOW 
 DATE: 12 02 1990              CUMULATIVE TIME STEP:       2
 MODFLOW STRESS PERIOD      4     CURRENT TIME STEP:      63     ITERATIONS:       6

 -----------------------------------------------------------------------------------

   CUMULATIVE VOLUMES               L**3   RATES FOR THIS TIME STEP           L**3/T
   ------------------                      ------------------------

                                     IN                                         IN
                                     --                                         --
        PRECIPITATION =        1449284.55          PRECIPITATION =                  
           STREAMFLOW =                               STREAMFLOW =                  
     GW BOUNDARY FLOW =                         GW BOUNDARY FLOW =                  


                                    OUT                                        OUT
                                    ---                                        ---
   EVAPOTRANSPIRATION =        1221159.14     EVAPOTRANSPIRATION =            234.69
           STREAMFLOW =         580451.55             STREAMFLOW =          10921.27
     GW BOUNDARY FLOW =           2271.56       GW BOUNDARY FLOW =             35.76

   INFLOWS - OUTFLOWS =        -354597.70     INFLOWS - OUTFLOWS =         -11191.72
             --------                                   --------

 TOTAL STORAGE CHANGE =        -352855.26         STORAGE CHANGE =         -11193.64
       --------------                             --------------
         LAND SURFACE =         486845.62           LAND SURFACE =           -339.04
            SOIL ZONE =         571003.55              SOIL ZONE =            234.74
     UNSATURATED ZONE =       -1943674.72       UNSATURATED ZONE =         -17262.04
       SATURATED ZONE =         532970.29         SATURATED ZONE =           6172.70

 OVERALL BUDGET ERROR =          -1742.44           BUDGET ERROR =              1.93


  PERCENT DISCREPANCY =             -0.10    PERCENT DISCREPANCY =              0.02



1
 SUMMARY VOLUMETRIC BUDGET FOR GSFLOW 
 DATE: 12 09 1990              CUMULATIVE TIME STEP:       9
 MODFLOW STRESS PERIOD      4     CURRENT TIME STEP:      70     ITERATIONS:       6

 -----------------------------------------------------------------------------------

   CUMULATIVE VOLUMES               L**3   RATES FOR THIS TIME STEP           L**3/T
   ------------------                      ------------------------

                                     IN                                         IN
                                     --                                         --
        PRECIPITATION =        1449284.55          PRECIPITATION =                  
           STREAMFLOW =                               STREAMFLOW =                  
     GW BOUNDARY FLOW =                         GW BOUNDARY FLOW =                  


                                    OUT                                        OUT
                                    ---                                        ---
   EVAPOTRANSPIRATION =        1296993.46     EVAPOTRANSPIRATION =          13848.35
           STREAMFLOW =         656556.89             STREAMFLOW =          10629.07
     GW BOUNDARY FLOW =           2521.48       GW BOUNDARY FLOW =             35.64

   INFLOWS - OUTFLOWS =        -506787.28     INFLOWS - OUTFLOWS =         -24513.06
             --------                                   --------

 TOTAL STORAGE CHANGE =        -505055.01         STORAGE CHANGE =         -24513.80
       --------------                             --------------
         LAND SURFACE =          67215.40           LAND SURFACE =         -45889.70
            SOIL ZONE =         919153.47              SOIL ZONE =          33795.18
     UNSATURATED ZONE =       -2061534.26       UNSATURATED ZONE =         -16477.04
       SATURATED ZONE =         570110.39         SATURATED ZONE =           4057.76

 OVERALL BUDGET ERROR =          -1732.27           BUDGET ERROR =              0.74


  PERCENT DISCREPANCY =             -0.09    PERCENT DISCREPANCY =              0.00



1
 SUMMARY VOLUMETRIC BUDGET FOR GSFLOW 
 DATE: 12 16 1990              CUMULATIVE TIME STEP:      16
 MODFLOW STRESS PERIOD      4     CURRENT TIME STEP:      77     ITERATIONS:       5

 -----------------------------------------------------------------------------------

   CUMULATIVE VOLUMES               L**3   RATES FOR THIS TIME STEP           L**3/T
   ------------------                      ------------------------

                                     IN                                         IN
                                     --                                         --
        PRECIPITATION =        1804962.84          PRECIPITATION =                  
           STREAMFLOW =                               STREAMFLOW =                  
     GW BOUNDARY FLOW =                         GW BOUNDARY FLOW =                  


                                    OUT                                        OUT
                                    ---                                        ---
   EVAPOTRANSPIRATION =        1325272.90     EVAPOTRANSPIRATION =                  
           STREAMFLOW =         734223.94             STREAMFLOW =          11286.65
     GW BOUNDARY FLOW =           2770.83       GW BOUNDARY FLOW =             35.60

   INFLOWS - OUTFLOWS =        -257304.83     INFLOWS - OUTFLOWS =         -11322.26
             --------                                   --------

 TOTAL STORAGE CHANGE =        -255581.40         STORAGE CHANGE =         -11323.13
       --------------                             --------------
         LAND SURFACE =         252566.26           LAND SURFACE =                  
            SOIL ZONE =        1065402.95              SOIL ZONE =            149.10
     UNSATURATED ZONE =       -2174829.04       UNSATURATED ZONE =         -15924.36
       SATURATED ZONE =         601278.43         SATURATED ZONE =           4452.13

 OVERALL BUDGET ERROR =          -1723.43           BUDGET ERROR =              0.88


  PERCENT DISCREPANCY =             -0.08    PERCENT DISCREPANCY =              0.01



1
 SUMMARY VOLUMETRIC BUDGET FOR GSFLOW 
 DATE: 12 23 1990              CUMULATIVE TIME STEP:      23
 MODFLOW STRESS PERIOD      4     CURRENT TIME STEP:      84     ITERATIONS:       6

 -----------------------------------------------------------------------------------

   CUMULATIVE VOLUMES               L**3   RATES FOR THIS TIME STEP           L**3/T
   ------------------                      ------------------------

                                     IN                                         IN
                                     --                                         --
        PRECIPITATION =        2276236.55          PRECIPITATION =                  
           STREAMFLOW =                               STREAMFLOW =                  
     GW BOUNDARY FLOW =              0.08       GW BOUNDARY FLOW =              0.04


                                    OUT                                        OUT
                                    ---                                        ---
   EVAPOTRANSPIRATION =        1326330.49     EVAPOTRANSPIRATION =                  
           STREAMFLOW =         813682.63             STREAMFLOW =          11392.59
     GW BOUNDARY FLOW =           3019.83       GW BOUNDARY FLOW =             35.57

   INFLOWS - OUTFLOWS =         133203.68     INFLOWS - OUTFLOWS =         -11428.12
             --------                                   --------

 TOTAL STORAGE CHANGE =         134926.31         STORAGE CHANGE =         -11427.95
       --------------                             --------------
         LAND SURFACE =         722784.33           LAND SURFACE =                  
            SOIL ZONE =        1066492.17              SOIL ZONE =            159.23
     UNSATURATED ZONE =       -2284042.18       UNSATURATED ZONE =         -15361.29
       SATURATED ZONE =         629691.98         SATURATED ZONE =           3774.10

 OVERALL BUDGET ERROR =          -1722.63           BUDGET ERROR =             -0.16


  PERCENT DISCREPANCY =             -0.08    PERCENT DISCREPANCY =             -0.00



1
 SUMMARY VOLUMETRIC BUDGET FOR GSFLOW 
 DATE: 12 30 1990              CUMULATIVE TIME STEP:      30
 MODFLOW STRESS PERIOD      4     CURRENT TIME STEP:      91     ITERATIONS:       5

 -----------------------------------------------------------------------------------

   CUMULATIVE VOLUMES               L**3   RATES FOR THIS TIME STEP           L**3/T
   ------------------                      ------------------------

                                     IN                                         IN
                                     --                                         --
        PRECIPITATION =        2276236.55          PRECIPITATION =                  
           STREAMFLOW =                               STREAMFLOW =                  
     GW BOUNDARY FLOW =              0.78       GW BOUNDARY FLOW =              0.14


                                    OUT                                        OUT
                                    ---                                        ---
   EVAPOTRANSPIRATION =        1326898.00     EVAPOTRANSPIRATION =                  
           STREAMFLOW =         893842.76             STREAMFLOW =          11496.25
     GW BOUNDARY FLOW =           3268.91       GW BOUNDARY FLOW =             35.59

   INFLOWS - OUTFLOWS =          52227.65     INFLOWS - OUTFLOWS =         -11531.70
             --------                                   --------

 TOTAL STORAGE CHANGE =          53958.44         STORAGE CHANGE =         -11529.51
       --------------                             --------------
         LAND SURFACE =         722216.94           LAND SURFACE =                  
            SOIL ZONE =        1067650.26              SOIL ZONE =            170.68
     UNSATURATED ZONE =       -2389353.21       UNSATURATED ZONE =         -14810.36
       SATURATED ZONE =         653444.46         SATURATED ZONE =           3110.17

 OVERALL BUDGET ERROR =          -1730.79           BUDGET ERROR =             -2.19


  PERCENT DISCREPANCY =             -0.08    PERCENT DISCREPANCY =             -0.02



1
 SUMMARY VOLUMETRIC BUDGET FOR GSFLOW 
 DATE: 01 06 1991              CUMULATIVE TIME STEP:       6
 MODFLOW STRESS PERIOD      5     CURRENT TIME STEP:      98     ITERATIONS:       5

 -----------------------------------------------------------------------------------

   CUMULATIVE VOLUMES               L**3   RATES FOR THIS TIME STEP           L**3/T
   ------------------                      ------------------------

                                     IN                                         IN
                                     --                                         --
        PRECIPITATION =        2276236.55          PRECIPITATION =                  
           STREAMFLOW =                               STREAMFLOW =                  
     GW BOUNDARY FLOW =              2.10       GW BOUNDARY FLOW =              0.22


                                    OUT                                        OUT
                                    ---                                        ---
   EVAPOTRANSPIRATION =        1354830.52     EVAPOTRANSPIRATION =           3327.36
           STREAMFLOW =         974682.50             STREAMFLOW =          11583.32
     GW BOUNDARY FLOW =           3518.77       GW BOUNDARY FLOW =             35.75

   INFLOWS - OUTFLOWS =         -56793.13     INFLOWS - OUTFLOWS =         -14946.19
             --------                                   --------

 TOTAL STORAGE CHANGE =         -55038.97         STORAGE CHANGE =         -14941.84
       --------------                             --------------
         LAND SURFACE =         585426.31           LAND SURFACE =          -8558.21
            SOIL ZONE =        1177779.82              SOIL ZONE =           5414.00
     UNSATURATED ZONE =       -2490706.12       UNSATURATED ZONE =         -14271.99
       SATURATED ZONE =         672461.03         SATURATED ZONE =           2474.35

 OVERALL BUDGET ERROR =          -1754.16           BUDGET ERROR =             -4.35


  PERCENT DISCREPANCY =             -0.08    PERCENT DISCREPANCY =             -0.03



1
 SUMMARY VOLUMETRIC BUDGET FOR GSFLOW 
 DATE: 01 13 1991              CUMULATIVE TIME STEP:      13
 MODFLOW STRESS PERIOD      5     CURRENT TIME STEP:     105     ITERATIONS:       6

 -----------------------------------------------------------------------------------

   CUMULATIVE VOLUMES               L**3   RATES FOR THIS TIME STEP           L**3/T
   ------------------                      ------------------------

                                     IN                                         IN
                                     --                                         --
        PRECIPITATION =        2596386.94          PRECIPITATION =          10327.43
           STREAMFLOW =                               STREAMFLOW =                  
     GW BOUNDARY FLOW =              4.02       GW BOUNDARY FLOW =              0.31


                                    OUT                                        OUT
                                    ---                                        ---
   EVAPOTRANSPIRATION =        1422995.06     EVAPOTRANSPIRATION =          18924.95
           STREAMFLOW =        1055746.60             STREAMFLOW =          11497.73
     GW BOUNDARY FLOW =           3768.96       GW BOUNDARY FLOW =             35.72

   INFLOWS - OUTFLOWS =         113880.35     INFLOWS - OUTFLOWS =         -20130.66
             --------                                   --------

 TOTAL STORAGE CHANGE =         115665.58         STORAGE CHANGE =         -20127.72
       --------------                             --------------
         LAND SURFACE =         517131.86           LAND SURFACE =        -134708.01
            SOIL ZONE =        1500721.17              SOIL ZONE =         127103.52
     UNSATURATED ZONE =       -2588004.26       UNSATURATED ZONE =         -13697.20
       SATURATED ZONE =         685816.81         SATURATED ZONE =           1173.96

 OVERALL BUDGET ERROR =          -1785.23           BUDGET ERROR =             -2.93


  PERCENT DISCREPANCY =             -0.07    PERCENT DISCREPANCY =             -0.01



1
 SUMMARY VOLUMETRIC BUDGET FOR GSFLOW 
 DATE: 01 20 1991              CUMULATIVE TIME STEP:      20
 MODFLOW STRESS PERIOD      5     CURRENT TIME STEP:     112     ITERATIONS:       5

 -----------------------------------------------------------------------------------

   CUMULATIVE VOLUMES               L**3   RATES FOR THIS TIME STEP           L**3/T
   ------------------                      ------------------------

                                     IN                                         IN
                                     --                                         --
        PRECIPITATION =        2596386.94          PRECIPITATION =                  
           STREAMFLOW =                               STREAMFLOW =                  
     GW BOUNDARY FLOW =              6.56       GW BOUNDARY FLOW =              0.40


                                    OUT                                        OUT
                                    ---                                        ---
   EVAPOTRANSPIRATION =        1501573.19     EVAPOTRANSPIRATION =           2597.79
           STREAMFLOW =        1137394.43             STREAMFLOW =          11700.08
     GW BOUNDARY FLOW =           4019.17       GW BOUNDARY FLOW =             35.74

   INFLOWS - OUTFLOWS =         -46593.29     INFLOWS - OUTFLOWS =         -14333.22
             --------                                   --------

 TOTAL STORAGE CHANGE =         -44762.04         STORAGE CHANGE =         -14325.48
       --------------                             --------------
         LAND SURFACE =         342485.13           LAND SURFACE =           -464.47
            SOIL ZONE =        1598784.92              SOIL ZONE =          -1910.81
     UNSATURATED ZONE =       -2681430.10       UNSATURATED ZONE =         -13122.10
       SATURATED ZONE =         695398.02         SATURATED ZONE =           1171.91

 OVERALL BUDGET ERROR =          -1831.25           BUDGET ERROR =             -7.74


  PERCENT DISCREPANCY =             -0.07    PERCENT DISCREPANCY =             -0.05



1
 SUMMARY VOLUMETRIC BUDGET FOR GSFLOW 
 DATE: 01 27 1991              CUMULATIVE TIME STEP:      27
 MODFLOW STRESS PERIOD      5     CURRENT TIME STEP:     119     ITERATIONS:       5

 -----------------------------------------------------------------------------------

   CUMULATIVE VOLUMES               L**3   RATES FOR THIS TIME STEP           L**3/T
   ------------------                      ------------------------

                                     IN                                         IN
                                     --                                         --
        PRECIPITATION =        2596386.94          PRECIPITATION =                  
           STREAMFLOW =                               STREAMFLOW =                  
     GW BOUNDARY FLOW =              9.67       GW BOUNDARY FLOW =              0.48


                                    OUT                                        OUT
                                    ---                                        ---
   EVAPOTRANSPIRATION =        1528433.09     EVAPOTRANSPIRATION =           1840.26
           STREAMFLOW =        1219520.33             STREAMFLOW =          11764.51
     GW BOUNDARY FLOW =           4269.35       GW BOUNDARY FLOW =             35.74

   INFLOWS - OUTFLOWS =        -155826.16     INFLOWS - OUTFLOWS =         -13640.02
             --------                                   --------

 TOTAL STORAGE CHANGE =        -153934.37         STORAGE CHANGE =         -13630.87
       --------------                             --------------
         LAND SURFACE =         307905.33           LAND SURFACE =           -546.58
            SOIL ZONE =        1608269.83              SOIL ZONE =          -1082.42
     UNSATURATED ZONE =       -2771335.15       UNSATURATED ZONE =         -12623.06
       SATURATED ZONE =         701225.61         SATURATED ZONE =            621.20

 OVERALL BUDGET ERROR =          -1891.79           BUDGET ERROR =             -9.15


  PERCENT DISCREPANCY =             -0.07    PERCENT DISCREPANCY =             -0.07



1
 SUMMARY VOLUMETRIC BUDGET FOR GSFLOW 
 DATE: 02 03 1991              CUMULATIVE TIME STEP:       3
 MODFLOW STRESS PERIOD      6     CURRENT TIME STEP:     126     ITERATIONS:       5

 -----------------------------------------------------------------------------------

   CUMULATIVE VOLUMES               L**3   RATES FOR THIS TIME STEP           L**3/T
   ------------------                      ------------------------

                                     IN                                         IN
                                     --                                         --
        PRECIPITATION =        3228422.31          PRECIPITATION =          30459.53
           STREAMFLOW =                               STREAMFLOW =                  
     GW BOUNDARY FLOW =             13.32       GW BOUNDARY FLOW =              0.56


                                    OUT                                        OUT
                                    ---                                        ---
   EVAPOTRANSPIRATION =        1637397.82     EVAPOTRANSPIRATION =          21777.54
           STREAMFLOW =        1302016.79             STREAMFLOW =          11816.36
     GW BOUNDARY FLOW =           4519.46       GW BOUNDARY FLOW =             35.72

   INFLOWS - OUTFLOWS =         284501.57     INFLOWS - OUTFLOWS =          -3169.54
             --------                                   --------

 TOTAL STORAGE CHANGE =         286463.12         STORAGE CHANGE =          -3159.06
       --------------                             --------------
         LAND SURFACE =         148156.03           LAND SURFACE =         -26520.09
            SOIL ZONE =        2293825.94              SOIL ZONE =          35557.98
     UNSATURATED ZONE =       -2857974.88       UNSATURATED ZONE =         -12171.13
       SATURATED ZONE =         702456.03         SATURATED ZONE =            -25.82

 OVERALL BUDGET ERROR =          -1961.56           BUDGET ERROR =            -10.48


  PERCENT DISCREPANCY =             -0.06    PERCENT DISCREPANCY =             -0.03



1
 SUMMARY VOLUMETRIC BUDGET FOR GSFLOW 
 DATE: 02 10 1991              CUMULATIVE TIME STEP:      10
 MODFLOW STRESS PERIOD      6     CURRENT TIME STEP:     133     ITERATIONS:       5

 -----------------------------------------------------------------------------------

   CUMULATIVE VOLUMES               L**3   RATES FOR THIS TIME STEP           L**3/T
   ------------------                      ------------------------

                                     IN                                         IN
                                     --                                         --
        PRECIPITATION =        3510173.01          PRECIPITATION =                  
           STREAMFLOW =                               STREAMFLOW =                  
     GW BOUNDARY FLOW =             17.50       GW BOUNDARY FLOW =              0.63


                                    OUT                                        OUT
                                    ---                                        ---
   EVAPOTRANSPIRATION =        1807094.11     EVAPOTRANSPIRATION =          25968.38
           STREAMFLOW =        1384952.33             STREAMFLOW =          11871.54
     GW BOUNDARY FLOW =           4769.46       GW BOUNDARY FLOW =             35.71

   INFLOWS - OUTFLOWS =         313374.61     INFLOWS - OUTFLOWS =         -37875.01
             --------                                   --------

 TOTAL STORAGE CHANGE =         315414.50         STORAGE CHANGE =         -37863.20
       --------------                             --------------
         LAND SURFACE =          66705.78           LAND SURFACE =          -7439.35
            SOIL ZONE =        2489180.77              SOIL ZONE =         -18263.62
     UNSATURATED ZONE =       -2941047.15       UNSATURATED ZONE =         -11664.60
       SATURATED ZONE =         700575.10         SATURATED ZONE =           -495.63

 OVERALL BUDGET ERROR =          -2039.88           BUDGET ERROR =            -11.81


  PERCENT DISCREPANCY =             -0.06    PERCENT DISCREPANCY =             -0.03



1
 SUMMARY VOLUMETRIC BUDGET FOR GSFLOW 
 DATE: 02 17 1991              CUMULATIVE TIME STEP:      17
 MODFLOW STRESS PERIOD      6     CURRENT TIME STEP:     140     ITERATIONS:       5

 -----------------------------------------------------------------------------------

   CUMULATIVE VOLUMES               L**3   RATES FOR THIS TIME STEP           L**3/T
   ------------------                      ------------------------

                                     IN                                         IN
                                     --                                         --
        PRECIPITATION =        3510173.01          PRECIPITATION =                  
           STREAMFLOW =                               STREAMFLOW =                  
     GW BOUNDARY FLOW =             22.18       GW BOUNDARY FLOW =              0.70


                                    OUT                                        OUT
                                    ---                                        ---
   EVAPOTRANSPIRATION =        2052658.69     EVAPOTRANSPIRATION =          24098.24
           STREAMFLOW =        1468222.48             STREAMFLOW =          11910.77
     GW BOUNDARY FLOW =           5019.35       GW BOUNDARY FLOW =             35.67

   INFLOWS - OUTFLOWS =         -15705.33     INFLOWS - OUTFLOWS =         -36043.99
             --------                                   --------

 TOTAL STORAGE CHANGE =         -13574.84         STORAGE CHANGE =         -36030.44
       --------------                             --------------
         LAND SURFACE =          14950.27           LAND SURFACE =           -975.14
            SOIL ZONE =        2296935.86              SOIL ZONE =         -22971.82
     UNSATURATED ZONE =       -3020420.87       UNSATURATED ZONE =         -11063.34
       SATURATED ZONE =         694959.91         SATURATED ZONE =          -1020.13

 OVERALL BUDGET ERROR =          -2130.48           BUDGET ERROR =            -13.55


  PERCENT DISCREPANCY =             -0.06    PERCENT DISCREPANCY =             -0.04



1
 SUMMARY VOLUMETRIC BUDGET FOR GSFLOW 
 DATE: 02 24 1991              CUMULATIVE TIME STEP:      24
 MODFLOW STRESS PERIOD      6     CURRENT TIME STEP:     147     ITERATIONS:       5

 -----------------------------------------------------------------------------------

   CUMULATIVE VOLUMES               L**3   RATES FOR THIS TIME STEP           L**3/T
   ------------------                      ------------------------

                                     IN                                         IN
                                     --                                         --
        PRECIPITATION =        3510173.01          PRECIPITATION =                  
           STREAMFLOW =                               STREAMFLOW =                  
     GW BOUNDARY FLOW =             27.33       GW BOUNDARY FLOW =              0.76


                                    OUT                                        OUT
                                    ---                                        ---
   EVAPOTRANSPIRATION =        2268626.27     EVAPOTRANSPIRATION =          21972.48
           STREAMFLOW =        1551685.52             STREAMFLOW =          11916.08
     GW BOUNDARY FLOW =           5268.38       GW BOUNDARY FLOW =             35.50

   INFLOWS - OUTFLOWS =        -315379.83     INFLOWS - OUTFLOWS =         -33923.30
             --------                                   --------

 TOTAL STORAGE CHANGE =        -313147.33         STORAGE CHANGE =         -33908.02
       --------------                             --------------
         LAND SURFACE =           6004.72           LAND SURFACE =           -187.76
            SOIL ZONE =        2091430.65              SOIL ZONE =         -21475.05
     UNSATURATED ZONE =       -3096279.28       UNSATURATED ZONE =         -10656.97
       SATURATED ZONE =         685696.58         SATURATED ZONE =          -1588.23

 OVERALL BUDGET ERROR =          -2232.49           BUDGET ERROR =            -15.28


  PERCENT DISCREPANCY =             -0.06    PERCENT DISCREPANCY =             -0.05



1
 SUMMARY VOLUMETRIC BUDGET FOR GSFLOW 
 DATE: 03 03 1991              CUMULATIVE TIME STEP:       3
 MODFLOW STRESS PERIOD      7     CURRENT TIME STEP:     154     ITERATIONS:       5

 -----------------------------------------------------------------------------------

   CUMULATIVE VOLUMES               L**3   RATES FOR THIS TIME STEP           L**3/T
   ------------------                      ------------------------

                                     IN                                         IN
                                     --                                         --
        PRECIPITATION =        6220189.63          PRECIPITATION =        1243187.24
           STREAMFLOW =                               STREAMFLOW =                  
     GW BOUNDARY FLOW =             32.93       GW BOUNDARY FLOW =              0.83


                                    OUT                                        OUT
                                    ---                                        ---
   EVAPOTRANSPIRATION =        2421925.88     EVAPOTRANSPIRATION =           8350.59
           STREAMFLOW =        1634634.84             STREAMFLOW =          11826.01
     GW BOUNDARY FLOW =           5516.14       GW BOUNDARY FLOW =             35.32

   INFLOWS - OUTFLOWS =        2158145.71     INFLOWS - OUTFLOWS =        1222976.14
             --------                                   --------

 TOTAL STORAGE CHANGE =        2160481.05         STORAGE CHANGE =        1222992.63
       --------------                             --------------
         LAND SURFACE =        2351702.99           LAND SURFACE =         893791.18
            SOIL ZONE =        2307102.50              SOIL ZONE =         341861.05
     UNSATURATED ZONE =       -3169031.03       UNSATURATED ZONE =         -10247.49
       SATURATED ZONE =         670706.60         SATURATED ZONE =          -2412.12

 OVERALL BUDGET ERROR =          -2335.35           BUDGET ERROR =            -16.49


  PERCENT DISCREPANCY =             -0.04    PERCENT DISCREPANCY =             -0.00



1
 SUMMARY VOLUMETRIC BUDGET FOR GSFLOW 
 DATE: 03 10 1991              CUMULATIVE TIME STEP:      10
 MODFLOW STRESS PERIOD      7     CURRENT TIME STEP:     161     ITERATIONS:       5

 -----------------------------------------------------------------------------------

   CUMULATIVE VOLUMES               L**3   RATES FOR THIS TIME STEP           L**3/T
   ------------------                      ------------------------

                                     IN                                         IN
                                     --                                         --
        PRECIPITATION =        8746030.42          PRECIPITATION =          32888.55
           STREAMFLOW =                               STREAMFLOW =                  
     GW BOUNDARY FLOW =             38.97       GW BOUNDARY FLOW =              0.89


                                    OUT                                        OUT
                                    ---                                        ---
   EVAPOTRANSPIRATION =        2486055.80     EVAPOTRANSPIRATION =           7392.34
           STREAMFLOW =        1741220.66             STREAMFLOW =          12557.88
     GW BOUNDARY FLOW =           5763.49       GW BOUNDARY FLOW =             35.23

   INFLOWS - OUTFLOWS =        4513029.44     INFLOWS - OUTFLOWS =          12903.98
             --------                                   --------

 TOTAL STORAGE CHANGE =        4515443.32         STORAGE CHANGE =          12922.22
       --------------                             --------------
         LAND SURFACE =        2489047.44           LAND SURFACE =         -20139.62
            SOIL ZONE =        4557242.55              SOIL ZONE =          36779.35
     UNSATURATED ZONE =       -3186865.45       UNSATURATED ZONE =          -1430.38
       SATURATED ZONE =         656018.78         SATURATED ZONE =          -2287.12

 OVERALL BUDGET ERROR =          -2413.88           BUDGET ERROR =            -18.24


  PERCENT DISCREPANCY =             -0.03    PERCENT DISCREPANCY =             -0.06



1
 SUMMARY VOLUMETRIC BUDGET FOR GSFLOW 
 DATE: 03 17 1991              CUMULATIVE TIME STEP:      17
 MODFLOW STRESS PERIOD      7     CURRENT TIME STEP:     168     ITERATIONS:       5

 -----------------------------------------------------------------------------------

   CUMULATIVE VOLUMES               L**3   RATES FOR THIS TIME STEP           L**3/T
   ------------------                      ------------------------

                                     IN                                         IN
                                     --                                         --
        PRECIPITATION =        9897129.71          PRECIPITATION =         157865.04
           STREAMFLOW =                               STREAMFLOW =                  
     GW BOUNDARY FLOW =             45.44       GW BOUNDARY FLOW =              0.95


                                    OUT                                        OUT
                                    ---                                        ---
   EVAPOTRANSPIRATION =        2509521.27     EVAPOTRANSPIRATION =           6885.13
           STREAMFLOW =        1830449.24             STREAMFLOW =          12803.71
     GW BOUNDARY FLOW =           6009.67       GW BOUNDARY FLOW =             35.11

   INFLOWS - OUTFLOWS =        5551194.97     INFLOWS - OUTFLOWS =         138142.04
             --------                                   --------

 TOTAL STORAGE CHANGE =        5553720.03         STORAGE CHANGE =         138161.38
       --------------                             --------------
         LAND SURFACE =        3616636.03           LAND SURFACE =         151296.14
            SOIL ZONE =        4495536.32              SOIL ZONE =          -8449.32
     UNSATURATED ZONE =       -3198603.62       UNSATURATED ZONE =          -2102.47
       SATURATED ZONE =         640151.30         SATURATED ZONE =          -2582.97

 OVERALL BUDGET ERROR =          -2525.06           BUDGET ERROR =            -19.34


  PERCENT DISCREPANCY =             -0.03    PERCENT DISCREPANCY =             -0.01



1
 SUMMARY VOLUMETRIC BUDGET FOR GSFLOW 
 DATE: 03 24 1991              CUMULATIVE TIME STEP:      24
 MODFLOW STRESS PERIOD      7     CURRENT TIME STEP:     175     ITERATIONS:       5

 -----------------------------------------------------------------------------------

   CUMULATIVE VOLUMES               L**3   RATES FOR THIS TIME STEP           L**3/T
   ------------------                      ------------------------

                                     IN                                         IN
                                     --                                         --
        PRECIPITATION =        1.1673D+07          PRECIPITATION =        1230031.83
           STREAMFLOW =                               STREAMFLOW =                  
     GW BOUNDARY FLOW =             52.31       GW BOUNDARY FLOW =              1.01


                                    OUT                                        OUT
                                    ---                                        ---
   EVAPOTRANSPIRATION =        2544156.21     EVAPOTRANSPIRATION =           4289.47
           STREAMFLOW =        1921650.88             STREAMFLOW =          13199.42
     GW BOUNDARY FLOW =           6254.97       GW BOUNDARY FLOW =             35.00

   INFLOWS - OUTFLOWS =        7201101.75     INFLOWS - OUTFLOWS =        1212508.96
             --------                                   --------

 TOTAL STORAGE CHANGE =        7203742.34         STORAGE CHANGE =        1212528.60
       --------------                             --------------
         LAND SURFACE =        5346769.67           LAND SURFACE =        1227877.70
            SOIL ZONE =        4449221.93              SOIL ZONE =         -10338.76
     UNSATURATED ZONE =       -3214451.95       UNSATURATED ZONE =          -2402.79
       SATURATED ZONE =         622202.69         SATURATED ZONE =          -2607.54

 OVERALL BUDGET ERROR =          -2640.59           BUDGET ERROR =            -19.64


  PERCENT DISCREPANCY =             -0.02    PERCENT DISCREPANCY =             -0.00



1
 SUMMARY VOLUMETRIC BUDGET FOR GSFLOW 
 DATE: 03 31 1991              CUMULATIVE TIME STEP:      31
 MODFLOW STRESS PERIOD      7     CURRENT TIME STEP:     182     ITERATIONS:       5

 -----------------------------------------------------------------------------------

   CUMULATIVE VOLUMES               L**3   RATES FOR THIS TIME STEP           L**3/T
   ------------------                      ------------------------

                                     IN                                         IN
                                     --                                         --
        PRECIPITATION =        1.2495D+07          PRECIPITATION =                  
           STREAMFLOW =                               STREAMFLOW =                  
     GW BOUNDARY FLOW =             59.57       GW BOUNDARY FLOW =              1.06


                                    OUT                                        OUT
                                    ---                                        ---
   EVAPOTRANSPIRATION =        2665175.07     EVAPOTRANSPIRATION =          47925.31
           STREAMFLOW =        2016750.35             STREAMFLOW =          14254.88
     GW BOUNDARY FLOW =           6499.58       GW BOUNDARY FLOW =             34.92

   INFLOWS - OUTFLOWS =        7806959.85     INFLOWS - OUTFLOWS =         -62214.05
             --------                                   --------

 TOTAL STORAGE CHANGE =        7809740.29         STORAGE CHANGE =         -62193.79
       --------------                             --------------
         LAND SURFACE =        5891403.37           LAND SURFACE =        -150773.77
            SOIL ZONE =        4544897.83              SOIL ZONE =          92455.84
     UNSATURATED ZONE =       -3230091.46       UNSATURATED ZONE =          -1181.27
       SATURATED ZONE =         603530.54         SATURATED ZONE =          -2694.59

 OVERALL BUDGET ERROR =          -2780.43           BUDGET ERROR =            -20.26


  PERCENT DISCREPANCY =             -0.02    PERCENT DISCREPANCY =             -0.03



1
 SUMMARY VOLUMETRIC BUDGET FOR GSFLOW 
 DATE: 04 07 1991              CUMULATIVE TIME STEP:       7
 MODFLOW STRESS PERIOD      8     CURRENT TIME STEP:     189     ITERATIONS:       6

 -----------------------------------------------------------------------------------

   CUMULATIVE VOLUMES               L**3   RATES FOR THIS TIME STEP           L**3/T
   ------------------                      ------------------------

                                     IN                                         IN
                                     --                                         --
        PRECIPITATION =        1.3018D+07          PRECIPITATION =                  
           STREAMFLOW =                               STREAMFLOW =                  
     GW BOUNDARY FLOW =             67.21       GW BOUNDARY FLOW =              1.11


                                    OUT                                        OUT
                                    ---                                        ---
   EVAPOTRANSPIRATION =        2973058.35     EVAPOTRANSPIRATION =          15898.60
           STREAMFLOW =        2245382.74             STREAMFLOW =          42480.80
     GW BOUNDARY FLOW =           6745.68       GW BOUNDARY FLOW =             35.32

   INFLOWS - OUTFLOWS =        7792617.19     INFLOWS - OUTFLOWS =         -58413.61
             --------                                   --------

 TOTAL STORAGE CHANGE =        7795484.62         STORAGE CHANGE =         -58405.06
       --------------                             --------------
         LAND SURFACE =        4251813.71           LAND SURFACE =         -72897.15
            SOIL ZONE =        6152309.87              SOIL ZONE =           5368.36
     UNSATURATED ZONE =       -3195476.95       UNSATURATED ZONE =          11028.43
       SATURATED ZONE =         586837.99         SATURATED ZONE =          -1904.70

 OVERALL BUDGET ERROR =          -2867.43           BUDGET ERROR =             -8.55


  PERCENT DISCREPANCY =             -0.02    PERCENT DISCREPANCY =             -0.01



1
 SUMMARY VOLUMETRIC BUDGET FOR GSFLOW 
 DATE: 04 14 1991              CUMULATIVE TIME STEP:      14
 MODFLOW STRESS PERIOD      8     CURRENT TIME STEP:     196     ITERATIONS:      10

 -----------------------------------------------------------------------------------

   CUMULATIVE VOLUMES               L**3   RATES FOR THIS TIME STEP           L**3/T
   ------------------                      ------------------------

                                     IN                                         IN
                                     --                                         --
        PRECIPITATION =        1.3018D+07          PRECIPITATION =                  
           STREAMFLOW =                               STREAMFLOW =                  
     GW BOUNDARY FLOW =             75.17       GW BOUNDARY FLOW =              1.16


                                    OUT                                        OUT
                                    ---                                        ---
   EVAPOTRANSPIRATION =        3156981.17     EVAPOTRANSPIRATION =          42060.22
           STREAMFLOW =        2672589.38             STREAMFLOW =          74175.83
     GW BOUNDARY FLOW =           6994.07       GW BOUNDARY FLOW =             35.60

   INFLOWS - OUTFLOWS =        7181247.29     INFLOWS - OUTFLOWS =        -116270.49
             --------                                   --------

 TOTAL STORAGE CHANGE =        7184147.14         STORAGE CHANGE =        -116269.83
       --------------                             --------------
         LAND SURFACE =        3591590.24           LAND SURFACE =        -191145.76
            SOIL ZONE =        6136948.87              SOIL ZONE =          65840.92
     UNSATURATED ZONE =       -3121540.58       UNSATURATED ZONE =          10064.47
       SATURATED ZONE =         577148.61         SATURATED ZONE =          -1029.46

 OVERALL BUDGET ERROR =          -2899.86           BUDGET ERROR =             -0.66


  PERCENT DISCREPANCY =             -0.02    PERCENT DISCREPANCY =             -0.00



1
 SUMMARY VOLUMETRIC BUDGET FOR GSFLOW 
 DATE: 04 21 1991              CUMULATIVE TIME STEP:      21
 MODFLOW STRESS PERIOD      8     CURRENT TIME STEP:     203     ITERATIONS:       9

 -----------------------------------------------------------------------------------

   CUMULATIVE VOLUMES               L**3   RATES FOR THIS TIME STEP           L**3/T
   ------------------                      ------------------------

                                     IN                                         IN
                                     --                                         --
        PRECIPITATION =        1.3034D+07          PRECIPITATION =                  
           STREAMFLOW =                               STREAMFLOW =                  
     GW BOUNDARY FLOW =             83.44       GW BOUNDARY FLOW =              1.20


                                    OUT                                        OUT
                                    ---                                        ---
   EVAPOTRANSPIRATION =        3410602.18     EVAPOTRANSPIRATION =          46843.68
           STREAMFLOW =        3224232.10             STREAMFLOW =          90946.27
     GW BOUNDARY FLOW =           7243.14       GW BOUNDARY FLOW =             35.67

   INFLOWS - OUTFLOWS =        6392068.12     INFLOWS - OUTFLOWS =        -137824.42
             --------                                   --------

 TOTAL STORAGE CHANGE =        6394980.46         STORAGE CHANGE =        -137823.50
       --------------                             --------------
         LAND SURFACE =        2434561.50           LAND SURFACE =        -213934.43
            SOIL ZONE =        6434995.02              SOIL ZONE =          64619.36
     UNSATURATED ZONE =       -3047953.90       UNSATURATED ZONE =          12020.89
       SATURATED ZONE =         573377.85         SATURATED ZONE =           -529.32

 OVERALL BUDGET ERROR =          -2912.34           BUDGET ERROR =             -0.92


  PERCENT DISCREPANCY =             -0.02    PERCENT DISCREPANCY =             -0.00



1
 SUMMARY VOLUMETRIC BUDGET FOR GSFLOW 
 DATE: 04 28 1991              CUMULATIVE TIME STEP:      28
 MODFLOW STRESS PERIOD      8     CURRENT TIME STEP:     210     ITERATIONS:       6

 -----------------------------------------------------------------------------------

   CUMULATIVE VOLUMES               L**3   RATES FOR THIS TIME STEP           L**3/T
   ------------------                      ------------------------

                                     IN                                         IN
                                     --                                         --
        PRECIPITATION =        1.3303D+07          PRECIPITATION =                  
           STREAMFLOW =                               STREAMFLOW =                  
     GW BOUNDARY FLOW =             91.97       GW BOUNDARY FLOW =              1.24


                                    OUT                                        OUT
                                    ---                                        ---
   EVAPOTRANSPIRATION =        3678704.14     EVAPOTRANSPIRATION =          58070.50
           STREAMFLOW =        3872967.53             STREAMFLOW =          92594.23
     GW BOUNDARY FLOW =           7492.51       GW BOUNDARY FLOW =             35.58

   INFLOWS - OUTFLOWS =        5744358.30     INFLOWS - OUTFLOWS =        -150699.06
             --------                                   --------

 TOTAL STORAGE CHANGE =        5747282.59         STORAGE CHANGE =        -150697.26
       --------------                             --------------
         LAND SURFACE =        1696015.43           LAND SURFACE =        -133870.58
            SOIL ZONE =        6442936.86              SOIL ZONE =         -28052.17
     UNSATURATED ZONE =       -2963897.93       UNSATURATED ZONE =          11447.28
       SATURATED ZONE =         572228.23         SATURATED ZONE =           -221.80

 OVERALL BUDGET ERROR =          -2924.29           BUDGET ERROR =             -1.80


  PERCENT DISCREPANCY =             -0.02    PERCENT DISCREPANCY =             -0.00



1
 SUMMARY VOLUMETRIC BUDGET FOR GSFLOW 
 DATE: 05 05 1991              CUMULATIVE TIME STEP:       5
 MODFLOW STRESS PERIOD      9     CURRENT TIME STEP:     217     ITERATIONS:       7

 -----------------------------------------------------------------------------------

   CUMULATIVE VOLUMES               L**3   RATES FOR THIS TIME STEP           L**3/T
   ------------------                      ------------------------

                                     IN                                         IN
                                     --                                         --
        PRECIPITATION =        1.3510D+07          PRECIPITATION =                  
           STREAMFLOW =                               STREAMFLOW =                  
     GW BOUNDARY FLOW =            100.77       GW BOUNDARY FLOW =              1.27


                                    OUT                                        OUT
                                    ---                                        ---
   EVAPOTRANSPIRATION =        4055461.90     EVAPOTRANSPIRATION =          90182.26
           STREAMFLOW =        4446289.97             STREAMFLOW =          83301.08
     GW BOUNDARY FLOW =           7740.21       GW BOUNDARY FLOW =             35.33

   INFLOWS - OUTFLOWS =        5000316.82     INFLOWS - OUTFLOWS =        -173517.40
             --------                                   --------

 TOTAL STORAGE CHANGE =        5003248.01         STORAGE CHANGE =        -173516.69
       --------------                             --------------
         LAND SURFACE =        1002302.70           LAND SURFACE =        -146993.92
            SOIL ZONE =        6321962.52              SOIL ZONE =         -36490.23
     UNSATURATED ZONE =       -2892202.20       UNSATURATED ZONE =          10058.62
       SATURATED ZONE =         571184.99         SATURATED ZONE =            -91.17

 OVERALL BUDGET ERROR =          -2931.18           BUDGET ERROR =             -0.70


  PERCENT DISCREPANCY =             -0.02    PERCENT DISCREPANCY =             -0.00



1
 SUMMARY VOLUMETRIC BUDGET FOR GSFLOW 
 DATE: 05 12 1991              CUMULATIVE TIME STEP:      12
 MODFLOW STRESS PERIOD      9     CURRENT TIME STEP:     224     ITERATIONS:       7

 -----------------------------------------------------------------------------------

   CUMULATIVE VOLUMES               L**3   RATES FOR THIS TIME STEP           L**3/T
   ------------------                      ------------------------

                                     IN                                         IN
                                     --                                         --
        PRECIPITATION =        1.4029D+07          PRECIPITATION =                  
           STREAMFLOW =                               STREAMFLOW =                  
     GW BOUNDARY FLOW =            109.84       GW BOUNDARY FLOW =              1.31


                                    OUT                                        OUT
                                    ---                                        ---
   EVAPOTRANSPIRATION =        4450849.17     EVAPOTRANSPIRATION =          68750.33
           STREAMFLOW =        4983478.18             STREAMFLOW =          85680.90
     GW BOUNDARY FLOW =           7986.26       GW BOUNDARY FLOW =             35.17

   INFLOWS - OUTFLOWS =        4587018.38     INFLOWS - OUTFLOWS =        -154465.09
             --------                                   --------

 TOTAL STORAGE CHANGE =        4589953.14         STORAGE CHANGE =        -154464.58
       --------------                             --------------
         LAND SURFACE =         554756.95           LAND SURFACE =        -204088.73
            SOIL ZONE =        6293545.77              SOIL ZONE =          40880.88
     UNSATURATED ZONE =       -2830588.48       UNSATURATED ZONE =           8721.89
       SATURATED ZONE =         572238.89         SATURATED ZONE =             21.38

 OVERALL BUDGET ERROR =          -2934.76           BUDGET ERROR =             -0.51


  PERCENT DISCREPANCY =             -0.02    PERCENT DISCREPANCY =             -0.00



1
 SUMMARY VOLUMETRIC BUDGET FOR GSFLOW 
 DATE: 05 19 1991              CUMULATIVE TIME STEP:      19
 MODFLOW STRESS PERIOD      9     CURRENT TIME STEP:     231     ITERATIONS:       7

 -----------------------------------------------------------------------------------

   CUMULATIVE VOLUMES               L**3   RATES FOR THIS TIME STEP           L**3/T
   ------------------                      ------------------------

                                     IN                                         IN
                                     --                                         --
        PRECIPITATION =        1.4365D+07          PRECIPITATION =                  
           STREAMFLOW =                               STREAMFLOW =                  
     GW BOUNDARY FLOW =            119.18       GW BOUNDARY FLOW =              1.35


                                    OUT                                        OUT
                                    ---                                        ---
   EVAPOTRANSPIRATION =        4889284.87     EVAPOTRANSPIRATION =          20369.32
           STREAMFLOW =        5431724.69             STREAMFLOW =          55438.67
     GW BOUNDARY FLOW =           8230.02       GW BOUNDARY FLOW =             34.65

   INFLOWS - OUTFLOWS =        4036257.90     INFLOWS - OUTFLOWS =         -75841.28
             --------                                   --------

 TOTAL STORAGE CHANGE =        4039194.22         STORAGE CHANGE =         -75841.54
       --------------                             --------------
         LAND SURFACE =         218155.85           LAND SURFACE =         -22216.95
            SOIL ZONE =        6030362.42              SOIL ZONE =         -59330.40
     UNSATURATED ZONE =       -2782240.44       UNSATURATED ZONE =           5528.52
       SATURATED ZONE =         572916.38         SATURATED ZONE =            177.29

 OVERALL BUDGET ERROR =          -2936.31           BUDGET ERROR =              0.26


  PERCENT DISCREPANCY =             -0.02    PERCENT DISCREPANCY =              0.00



1
 SUMMARY VOLUMETRIC BUDGET FOR GSFLOW 
 DATE: 05 26 1991              CUMULATIVE TIME STEP:      26
 MODFLOW STRESS PERIOD      9     CURRENT TIME STEP:     238     ITERATIONS:       6

 -----------------------------------------------------------------------------------

   CUMULATIVE VOLUMES               L**3   RATES FOR THIS TIME STEP           L**3/T
   ------------------                      ------------------------

                                     IN                                         IN
                                     --                                         --
        PRECIPITATION =        1.4426D+07          PRECIPITATION =                  
           STREAMFLOW =                               STREAMFLOW =                  
     GW BOUNDARY FLOW =            128.79       GW BOUNDARY FLOW =              1.39


                                    OUT                                        OUT
                                    ---                                        ---
   EVAPOTRANSPIRATION =        5573761.11     EVAPOTRANSPIRATION =          76940.71
           STREAMFLOW =        5737161.01             STREAMFLOW =          31264.30
     GW BOUNDARY FLOW =           8470.69       GW BOUNDARY FLOW =             34.13

   INFLOWS - OUTFLOWS =        3107233.60     INFLOWS - OUTFLOWS =        -108237.75
             --------                                   --------

 TOTAL STORAGE CHANGE =        3110169.55         STORAGE CHANGE =        -108236.59
       --------------                             --------------
         LAND SURFACE =          51493.15           LAND SURFACE =          -7682.13
            SOIL ZONE =        5248712.56              SOIL ZONE =         -99900.06
     UNSATURATED ZONE =       -2761363.21       UNSATURATED ZONE =            -35.25
       SATURATED ZONE =         571327.05         SATURATED ZONE =           -619.15

 OVERALL BUDGET ERROR =          -2935.95           BUDGET ERROR =             -1.16


  PERCENT DISCREPANCY =             -0.02    PERCENT DISCREPANCY =             -0.00



1
 SUMMARY VOLUMETRIC BUDGET FOR GSFLOW 
 DATE: 06 02 1991              CUMULATIVE TIME STEP:       2
 MODFLOW STRESS PERIOD     10     CURRENT TIME STEP:     245     ITERATIONS:       6

 -----------------------------------------------------------------------------------

   CUMULATIVE VOLUMES               L**3   RATES FOR THIS TIME STEP           L**3/T
   ------------------                      ------------------------

                                     IN                                         IN
                                     --                                         --
        PRECIPITATION =        1.4671D+07          PRECIPITATION =                  
           STREAMFLOW =                               STREAMFLOW =                  
     GW BOUNDARY FLOW =            138.70       GW BOUNDARY FLOW =              1.43


                                    OUT                                        OUT
                                    ---                                        ---
   EVAPOTRANSPIRATION =        6162572.10     EVAPOTRANSPIRATION =         127630.39
           STREAMFLOW =        5948105.66             STREAMFLOW =          25786.53
     GW BOUNDARY FLOW =           8708.80       GW BOUNDARY FLOW =             33.88

   INFLOWS - OUTFLOWS =        2551726.94     INFLOWS - OUTFLOWS =        -153449.36
             --------                                   --------

 TOTAL STORAGE CHANGE =        2554683.13         STORAGE CHANGE =        -153446.02
       --------------                             --------------
         LAND SURFACE =          18305.18           LAND SURFACE =          -3906.15
            SOIL ZONE =        4746720.12              SOIL ZONE =        -145293.44
     UNSATURATED ZONE =       -2775270.46       UNSATURATED ZONE =          -3117.44
       SATURATED ZONE =         564928.29         SATURATED ZONE =          -1128.99

 OVERALL BUDGET ERROR =          -2956.19           BUDGET ERROR =             -3.34


  PERCENT DISCREPANCY =             -0.02    PERCENT DISCREPANCY =             -0.00



1
 SUMMARY VOLUMETRIC BUDGET FOR GSFLOW 
 DATE: 06 09 1991              CUMULATIVE TIME STEP:       9
 MODFLOW STRESS PERIOD     10     CURRENT TIME STEP:     252     ITERATIONS:       7

 -----------------------------------------------------------------------------------

   CUMULATIVE VOLUMES               L**3   RATES FOR THIS TIME STEP           L**3/T
   ------------------                      ------------------------

                                     IN                                         IN
                                     --                                         --
        PRECIPITATION =        1.4671D+07          PRECIPITATION =                  
           STREAMFLOW =                               STREAMFLOW =                  
     GW BOUNDARY FLOW =            148.89       GW BOUNDARY FLOW =              1.47


                                    OUT                                        OUT
                                    ---                                        ---
   EVAPOTRANSPIRATION =        6951470.57     EVAPOTRANSPIRATION =         172555.02
           STREAMFLOW =        6099452.29             STREAMFLOW =          18777.74
     GW BOUNDARY FLOW =           8944.76       GW BOUNDARY FLOW =             33.59

   INFLOWS - OUTFLOWS =        1611256.07     INFLOWS - OUTFLOWS =        -191364.88
             --------                                   --------

 TOTAL STORAGE CHANGE =        1614253.48         STORAGE CHANGE =        -191358.41
       --------------                             --------------
         LAND SURFACE =           3417.33           LAND SURFACE =          -2018.63
            SOIL ZONE =        3869933.44              SOIL ZONE =        -180586.20
     UNSATURATED ZONE =       -2811591.45       UNSATURATED ZONE =          -6352.09
       SATURATED ZONE =         552494.16         SATURATED ZONE =          -2401.48

 OVERALL BUDGET ERROR =          -2997.41           BUDGET ERROR =             -6.47


  PERCENT DISCREPANCY =             -0.02    PERCENT DISCREPANCY =             -0.00



1
 SUMMARY VOLUMETRIC BUDGET FOR GSFLOW 
 DATE: 06 16 1991              CUMULATIVE TIME STEP:      16
 MODFLOW STRESS PERIOD     10     CURRENT TIME STEP:     259     ITERATIONS:       6

 -----------------------------------------------------------------------------------

   CUMULATIVE VOLUMES               L**3   RATES FOR THIS TIME STEP           L**3/T
   ------------------                      ------------------------

                                     IN                                         IN
                                     --                                         --
        PRECIPITATION =        1.4671D+07          PRECIPITATION =                  
           STREAMFLOW =                               STREAMFLOW =                  
     GW BOUNDARY FLOW =            159.37       GW BOUNDARY FLOW =              1.51


                                    OUT                                        OUT
                                    ---                                        ---
   EVAPOTRANSPIRATION =        7968547.94     EVAPOTRANSPIRATION =         117053.57
           STREAMFLOW =        6217722.36             STREAMFLOW =          16327.41
     GW BOUNDARY FLOW =           9178.99       GW BOUNDARY FLOW =             33.38

   INFLOWS - OUTFLOWS =         475684.89     INFLOWS - OUTFLOWS =        -133412.85
             --------                                   --------

 TOTAL STORAGE CHANGE =         478748.15         STORAGE CHANGE =        -133401.77
       --------------                             --------------
         LAND SURFACE =             89.42           LAND SURFACE =            -43.13
            SOIL ZONE =        2844627.71              SOIL ZONE =        -113376.48
     UNSATURATED ZONE =       -2896680.41       UNSATURATED ZONE =         -16107.86
       SATURATED ZONE =         530711.43         SATURATED ZONE =          -3874.30

 OVERALL BUDGET ERROR =          -3063.27           BUDGET ERROR =            -11.08


  PERCENT DISCREPANCY =             -0.02    PERCENT DISCREPANCY =             -0.01



1
 SUMMARY VOLUMETRIC BUDGET FOR GSFLOW 
 DATE: 06 23 1991              CUMULATIVE TIME STEP:      23
 MODFLOW STRESS PERIOD     10     CURRENT TIME STEP:     266     ITERATIONS:       5

 -----------------------------------------------------------------------------------

   CUMULATIVE VOLUMES               L**3   RATES FOR THIS TIME STEP           L**3/T
   ------------------                      ------------------------

                                     IN                                         IN
                                     --                                         --
        PRECIPITATION =        1.4671D+07          PRECIPITATION =                  
           STREAMFLOW =                               STREAMFLOW =                  
     GW BOUNDARY FLOW =            169.95       GW BOUNDARY FLOW =              1.48


                                    OUT                                        OUT
                                    ---                                        ---
   EVAPOTRANSPIRATION =        8512169.28     EVAPOTRANSPIRATION =          39004.36
           STREAMFLOW =        6328353.45             STREAMFLOW =          15507.56
     GW BOUNDARY FLOW =           9412.01       GW BOUNDARY FLOW =             33.22

   INFLOWS - OUTFLOWS =        -178789.99     INFLOWS - OUTFLOWS =         -54543.66
             --------                                   --------

 TOTAL STORAGE CHANGE =        -175634.29         STORAGE CHANGE =         -54522.07
       --------------                             --------------
         LAND SURFACE =             10.53           LAND SURFACE =             -3.38
            SOIL ZONE =        2337308.14              SOIL ZONE =         -35974.83
     UNSATURATED ZONE =       -3009157.69       UNSATURATED ZONE =         -13135.57
       SATURATED ZONE =         496204.74         SATURATED ZONE =          -5408.28

 OVERALL BUDGET ERROR =          -3155.71           BUDGET ERROR =            -21.59


  PERCENT DISCREPANCY =             -0.02    PERCENT DISCREPANCY =             -0.04



1
 SUMMARY VOLUMETRIC BUDGET FOR GSFLOW 
 DATE: 06 30 1991              CUMULATIVE TIME STEP:      30
 MODFLOW STRESS PERIOD     10     CURRENT TIME STEP:     273     ITERATIONS:       5

 -----------------------------------------------------------------------------------

   CUMULATIVE VOLUMES               L**3   RATES FOR THIS TIME STEP           L**3/T
   ------------------                      ------------------------

                                     IN                                         IN
[...]
   ------------------                      ------------------------

                                     IN                                         IN
                                     --                                         --
        PRECIPITATION =        2.4013D+08          PRECIPITATION =                  
           STREAMFLOW =                               STREAMFLOW =                  
     GW BOUNDARY FLOW =          14854.15       GW BOUNDARY FLOW =              6.14


                                    OUT                                        OUT
                                    ---                                        ---
   EVAPOTRANSPIRATION =        1.4355D+08     EVAPOTRANSPIRATION =          27627.04
           STREAMFLOW =        1.2075D+08             STREAMFLOW =           6419.64
     GW BOUNDARY FLOW =          95674.48       GW BOUNDARY FLOW =             22.28

   INFLOWS - OUTFLOWS =       -2.4256D+07     INFLOWS - OUTFLOWS =         -34062.82
             --------                                   --------

 TOTAL STORAGE CHANGE =       -2.4241D+07         STORAGE CHANGE =         -34063.35
       --------------                             --------------
         LAND SURFACE =          31152.71           LAND SURFACE =         -27523.93
            SOIL ZONE =        -202491.99              SOIL ZONE =            -60.49
     UNSATURATED ZONE =         451972.46       UNSATURATED ZONE =          -1596.98
       SATURATED ZONE =       -2.4521D+07         SATURATED ZONE =          -4881.96

 OVERALL BUDGET ERROR =         -15131.06           BUDGET ERROR =              0.54


  PERCENT DISCREPANCY =             -0.01    PERCENT DISCREPANCY =              0.00



1
 SUMMARY VOLUMETRIC BUDGET FOR GSFLOW 
 DATE: 09 10 2000              CUMULATIVE TIME STEP:      10
 MODFLOW STRESS PERIOD    121     CURRENT TIME STEP:    3633     ITERATIONS:      13

 -----------------------------------------------------------------------------------

   CUMULATIVE VOLUMES               L**3   RATES FOR THIS TIME STEP           L**3/T
   ------------------                      ------------------------

                                     IN                                         IN
                                     --                                         --
        PRECIPITATION =        2.4013D+08          PRECIPITATION =                  
           STREAMFLOW =                               STREAMFLOW =                  
     GW BOUNDARY FLOW =          14897.14       GW BOUNDARY FLOW =              6.14


                                    OUT                                        OUT
                                    ---                                        ---
   EVAPOTRANSPIRATION =        1.4364D+08     EVAPOTRANSPIRATION =           8571.05
           STREAMFLOW =        1.2079D+08             STREAMFLOW =           4317.92
     GW BOUNDARY FLOW =          95829.04       GW BOUNDARY FLOW =             22.05

   INFLOWS - OUTFLOWS =       -2.4375D+07     INFLOWS - OUTFLOWS =         -12904.87
             --------                                   --------

 TOTAL STORAGE CHANGE =       -2.4360D+07         STORAGE CHANGE =         -12904.16
       --------------                             --------------
         LAND SURFACE =                             LAND SURFACE =                  
            SOIL ZONE =        -218725.17              SOIL ZONE =          -2399.85
     UNSATURATED ZONE =         440438.01       UNSATURATED ZONE =          -1619.57
       SATURATED ZONE =       -2.4582D+07         SATURATED ZONE =          -8884.75

 OVERALL BUDGET ERROR =         -15140.91           BUDGET ERROR =             -0.71


  PERCENT DISCREPANCY =             -0.01    PERCENT DISCREPANCY =             -0.01



1
 SUMMARY VOLUMETRIC BUDGET FOR GSFLOW 
 DATE: 09 17 2000              CUMULATIVE TIME STEP:      17
 MODFLOW STRESS PERIOD    121     CURRENT TIME STEP:    3640     ITERATIONS:       7

 -----------------------------------------------------------------------------------

   CUMULATIVE VOLUMES               L**3   RATES FOR THIS TIME STEP           L**3/T
   ------------------                      ------------------------

                                     IN                                         IN
                                     --                                         --
        PRECIPITATION =        2.4013D+08          PRECIPITATION =                  
           STREAMFLOW =                               STREAMFLOW =                  
     GW BOUNDARY FLOW =          14940.17       GW BOUNDARY FLOW =              6.15


                                    OUT                                        OUT
                                    ---                                        ---
   EVAPOTRANSPIRATION =        1.4371D+08     EVAPOTRANSPIRATION =           9860.16
           STREAMFLOW =        1.2081D+08             STREAMFLOW =           4040.22
     GW BOUNDARY FLOW =          95982.95       GW BOUNDARY FLOW =             22.00

   INFLOWS - OUTFLOWS =       -2.4476D+07     INFLOWS - OUTFLOWS =         -13916.23
             --------                                   --------

 TOTAL STORAGE CHANGE =       -2.4461D+07         STORAGE CHANGE =         -13914.86
       --------------                             --------------
         LAND SURFACE =                             LAND SURFACE =                  
            SOIL ZONE =        -237856.91              SOIL ZONE =          -2392.53
     UNSATURATED ZONE =         428998.56       UNSATURATED ZONE =          -1628.91
       SATURATED ZONE =       -2.4652D+07         SATURATED ZONE =          -9893.41

 OVERALL BUDGET ERROR =         -15143.47           BUDGET ERROR =             -1.37


  PERCENT DISCREPANCY =             -0.01    PERCENT DISCREPANCY =             -0.01



1
 SUMMARY VOLUMETRIC BUDGET FOR GSFLOW 
 DATE: 09 24 2000              CUMULATIVE TIME STEP:      24
 MODFLOW STRESS PERIOD    121     CURRENT TIME STEP:    3647     ITERATIONS:       6

 -----------------------------------------------------------------------------------

   CUMULATIVE VOLUMES               L**3   RATES FOR THIS TIME STEP           L**3/T
   ------------------                      ------------------------

                                     IN                                         IN
                                     --                                         --
        PRECIPITATION =        2.4013D+08          PRECIPITATION =                  
           STREAMFLOW =                               STREAMFLOW =                  
     GW BOUNDARY FLOW =          14983.26       GW BOUNDARY FLOW =              6.16


                                    OUT                                        OUT
                                    ---                                        ---
   EVAPOTRANSPIRATION =        1.4376D+08     EVAPOTRANSPIRATION =           5096.40
           STREAMFLOW =        1.2084D+08             STREAMFLOW =           5198.35
     GW BOUNDARY FLOW =          96137.25       GW BOUNDARY FLOW =             22.13

   INFLOWS - OUTFLOWS =       -2.4562D+07     INFLOWS - OUTFLOWS =         -10310.72
             --------                                   --------

 TOTAL STORAGE CHANGE =       -2.4547D+07         STORAGE CHANGE =         -10309.75
       --------------                             --------------
         LAND SURFACE =                             LAND SURFACE =                  
            SOIL ZONE =        -250065.87              SOIL ZONE =          -1056.17
     UNSATURATED ZONE =         417988.24       UNSATURATED ZONE =          -1513.79
       SATURATED ZONE =       -2.4715D+07         SATURATED ZONE =          -7739.79

 OVERALL BUDGET ERROR =         -15149.88           BUDGET ERROR =             -0.97


  PERCENT DISCREPANCY =             -0.01    PERCENT DISCREPANCY =             -0.01



1
 SUMMARY VOLUMETRIC BUDGET FOR GSFLOW 
 DATE: 10 01 2000              CUMULATIVE TIME STEP:       1
 MODFLOW STRESS PERIOD    122     CURRENT TIME STEP:    3654     ITERATIONS:       7

 -----------------------------------------------------------------------------------

   CUMULATIVE VOLUMES               L**3   RATES FOR THIS TIME STEP           L**3/T
   ------------------                      ------------------------

                                     IN                                         IN
                                     --                                         --
        PRECIPITATION =        2.4013D+08          PRECIPITATION =                  
           STREAMFLOW =                               STREAMFLOW =                  
     GW BOUNDARY FLOW =          15026.39       GW BOUNDARY FLOW =              6.16


                                    OUT                                        OUT
                                    ---                                        ---
   EVAPOTRANSPIRATION =        1.4382D+08     EVAPOTRANSPIRATION =           8244.16
           STREAMFLOW =        1.2087D+08             STREAMFLOW =           4355.65
     GW BOUNDARY FLOW =          96291.47       GW BOUNDARY FLOW =             22.03

   INFLOWS - OUTFLOWS =       -2.4652D+07     INFLOWS - OUTFLOWS =         -12615.67
             --------                                   --------

 TOTAL STORAGE CHANGE =       -2.4637D+07         STORAGE CHANGE =         -12615.98
       --------------                             --------------
         LAND SURFACE =                             LAND SURFACE =                  
            SOIL ZONE =        -261824.60              SOIL ZONE =          -1552.31
     UNSATURATED ZONE =         407029.19       UNSATURATED ZONE =          -1563.56
       SATURATED ZONE =       -2.4782D+07         SATURATED ZONE =          -9500.11

 OVERALL BUDGET ERROR =         -15153.27           BUDGET ERROR =              0.31


  PERCENT DISCREPANCY =             -0.01    PERCENT DISCREPANCY =              0.00



1
 SUMMARY VOLUMETRIC BUDGET FOR GSFLOW 
 DATE: 10 08 2000              CUMULATIVE TIME STEP:       8
 MODFLOW STRESS PERIOD    122     CURRENT TIME STEP:    3661     ITERATIONS:       3

 -----------------------------------------------------------------------------------

   CUMULATIVE VOLUMES               L**3   RATES FOR THIS TIME STEP           L**3/T
   ------------------                      ------------------------

                                     IN                                         IN
                                     --                                         --
        PRECIPITATION =        2.4013D+08          PRECIPITATION =                  
           STREAMFLOW =                               STREAMFLOW =                  
     GW BOUNDARY FLOW =          15069.56       GW BOUNDARY FLOW =              6.17


                                    OUT                                        OUT
                                    ---                                        ---
   EVAPOTRANSPIRATION =        1.4387D+08     EVAPOTRANSPIRATION =           6904.05
           STREAMFLOW =        1.2091D+08             STREAMFLOW =           4762.20
     GW BOUNDARY FLOW =          96445.88       GW BOUNDARY FLOW =             22.07

   INFLOWS - OUTFLOWS =       -2.4735D+07     INFLOWS - OUTFLOWS =         -11682.15
             --------                                   --------

 TOTAL STORAGE CHANGE =       -2.4720D+07         STORAGE CHANGE =         -11618.38
       --------------                             --------------
         LAND SURFACE =                             LAND SURFACE =                  
            SOIL ZONE =        -270631.97              SOIL ZONE =          -1148.13
     UNSATURATED ZONE =         396252.62       UNSATURATED ZONE =          -1545.86
       SATURATED ZONE =       -2.4845D+07         SATURATED ZONE =          -8924.39

 OVERALL BUDGET ERROR =         -15218.46           BUDGET ERROR =            -63.76


  PERCENT DISCREPANCY =             -0.01    PERCENT DISCREPANCY =             -0.55



1
 SUMMARY VOLUMETRIC BUDGET FOR GSFLOW 
 DATE: 10 15 2000              CUMULATIVE TIME STEP:      15
 MODFLOW STRESS PERIOD    122     CURRENT TIME STEP:    3668     ITERATIONS:       7

 -----------------------------------------------------------------------------------

   CUMULATIVE VOLUMES               L**3   RATES FOR THIS TIME STEP           L**3/T
   ------------------                      ------------------------

                                     IN                                         IN
                                     --                                         --
        PRECIPITATION =        2.4034D+08          PRECIPITATION =                  
           STREAMFLOW =                               STREAMFLOW =                  
     GW BOUNDARY FLOW =          15112.78       GW BOUNDARY FLOW =              6.18


                                    OUT                                        OUT
                                    ---                                        ---
   EVAPOTRANSPIRATION =        1.4395D+08     EVAPOTRANSPIRATION =           8029.43
           STREAMFLOW =        1.2095D+08             STREAMFLOW =           6068.88
     GW BOUNDARY FLOW =          96601.76       GW BOUNDARY FLOW =             22.23

   INFLOWS - OUTFLOWS =       -2.4645D+07     INFLOWS - OUTFLOWS =         -14114.36
             --------                                   --------

 TOTAL STORAGE CHANGE =       -2.4630D+07         STORAGE CHANGE =         -14113.80
       --------------                             --------------
         LAND SURFACE =            289.77           LAND SURFACE =          -3209.51
            SOIL ZONE =        -127985.22              SOIL ZONE =          -2039.16
     UNSATURATED ZONE =         385513.92       UNSATURATED ZONE =          -1627.95
       SATURATED ZONE =       -2.4888D+07         SATURATED ZONE =          -7237.18

 OVERALL BUDGET ERROR =         -15245.42           BUDGET ERROR =             -0.56


  PERCENT DISCREPANCY =             -0.01    PERCENT DISCREPANCY =             -0.00



1
 SUMMARY VOLUMETRIC BUDGET FOR GSFLOW 
 DATE: 10 22 2000              CUMULATIVE TIME STEP:      22
 MODFLOW STRESS PERIOD    122     CURRENT TIME STEP:    3675     ITERATIONS:       5

 -----------------------------------------------------------------------------------

   CUMULATIVE VOLUMES               L**3   RATES FOR THIS TIME STEP           L**3/T
   ------------------                      ------------------------

                                     IN                                         IN
                                     --                                         --
        PRECIPITATION =        2.4039D+08          PRECIPITATION =                  
           STREAMFLOW =                               STREAMFLOW =                  
     GW BOUNDARY FLOW =          15156.03       GW BOUNDARY FLOW =              6.18


                                    OUT                                        OUT
                                    ---                                        ---
   EVAPOTRANSPIRATION =        1.4400D+08     EVAPOTRANSPIRATION =           8033.28
           STREAMFLOW =        1.2100D+08             STREAMFLOW =           7106.35
     GW BOUNDARY FLOW =          96757.54       GW BOUNDARY FLOW =             22.36

   INFLOWS - OUTFLOWS =       -2.4686D+07     INFLOWS - OUTFLOWS =         -15155.81
             --------                                   --------

 TOTAL STORAGE CHANGE =       -2.4671D+07         STORAGE CHANGE =         -15151.24
       --------------                             --------------
         LAND SURFACE =          27624.54           LAND SURFACE =          -7992.89
            SOIL ZONE =        -135953.53              SOIL ZONE =              8.67
     UNSATURATED ZONE =         374502.23       UNSATURATED ZONE =          -1480.07
       SATURATED ZONE =       -2.4937D+07         SATURATED ZONE =          -5686.95

 OVERALL BUDGET ERROR =         -15272.93           BUDGET ERROR =             -4.57


  PERCENT DISCREPANCY =             -0.01    PERCENT DISCREPANCY =             -0.03



1
 SUMMARY VOLUMETRIC BUDGET FOR GSFLOW 
 DATE: 10 29 2000              CUMULATIVE TIME STEP:      29
 MODFLOW STRESS PERIOD    122     CURRENT TIME STEP:    3682     ITERATIONS:      23

 -----------------------------------------------------------------------------------

   CUMULATIVE VOLUMES               L**3   RATES FOR THIS TIME STEP           L**3/T
   ------------------                      ------------------------

                                     IN                                         IN
                                     --                                         --
        PRECIPITATION =        2.4111D+08          PRECIPITATION =          24578.20
           STREAMFLOW =                               STREAMFLOW =                  
     GW BOUNDARY FLOW =          15199.31       GW BOUNDARY FLOW =              6.18


                                    OUT                                        OUT
                                    ---                                        ---
   EVAPOTRANSPIRATION =        1.4403D+08     EVAPOTRANSPIRATION =           1112.76
           STREAMFLOW =        1.2105D+08             STREAMFLOW =           7016.56
     GW BOUNDARY FLOW =          96913.96       GW BOUNDARY FLOW =             22.38

   INFLOWS - OUTFLOWS =       -2.4048D+07     INFLOWS - OUTFLOWS =          16432.69
             --------                                   --------

 TOTAL STORAGE CHANGE =       -2.4033D+07         STORAGE CHANGE =          16432.62
       --------------                             --------------
         LAND SURFACE =         587219.82           LAND SURFACE =          11658.99
            SOIL ZONE =          -3372.71              SOIL ZONE =          12328.70
     UNSATURATED ZONE =         363604.67       UNSATURATED ZONE =          -1570.96
       SATURATED ZONE =       -2.4980D+07         SATURATED ZONE =          -5984.10

 OVERALL BUDGET ERROR =         -15291.15           BUDGET ERROR =              0.07


  PERCENT DISCREPANCY =             -0.01    PERCENT DISCREPANCY =              0.00



 Number of time steps:   3684;  Number of non-convergence:   0
 MF iterations:         23906;  SZ iterations:           23046
 Average MF iterations:  6.49;  Average SZ iterations:    6.26
 Maximum MF iterations:   507;  Maximum SZ iterations:      50

mxsziter reached: 5

MF iteration distribution:      0    0   89  400  639 1209  877  282  109   29
                                5    2   11    5    3    3    1    4    0    0
                                0    1    4    1    0    0    0    0    1    0
                                0    0    0    0    0    0    1    0    0    0
                                0    1    0    0    0    1    0    1    0    0
                                0    0    0    0    0    0    0    0    1    0
                                0    0    0    0    0    0    0    0    0    0
                                0    0    0    0    0    0    0    0    0    4

SZ computation distribution:    0    0   89  400  639 1209  877  282  109   29
                                5    2   11    5    3    3    1    4    0    0
                                0    1    4    1    0    0    0    0    1    0
                                0    0    0    0    0    0    1    0    0    0
                                0    1    0    0    0    1    0    1    0    5
                                0    0    0    0    0    0    0    0    0    0
                                0    0    0    0    0    0    0    0    0    0
                                0    0    0    0    0    0    0    0    0    0

