1
 SUMMARY VOLUMETRIC BUDGET FOR GSFLOW 
 DATE: 10 07 1990              CUMULATIVE TIME STEP:       7
 MODFLOW STRESS PERIOD      2     CURRENT TIME STEP:       7     ITERATIONS:       7

 -----------------------------------------------------------------------------------

   CUMULATIVE VOLUMES               L**3   RATES FOR THIS TIME STEP           L**3/T
   ------------------                      ------------------------

                                     IN                                         IN
                                     --                                         --
        PRECIPITATION =                            PRECIPITATION =                  
           STREAMFLOW =                               STREAMFLOW =                  
     GW BOUNDARY FLOW =                         GW BOUNDARY FLOW =                  


                                    OUT                                        OUT
                                    ---                                        ---
   EVAPOTRANSPIRATION =         385019.00     EVAPOTRANSPIRATION =          11801.64
           STREAMFLOW =          44249.52             STREAMFLOW =           7980.38
     GW BOUNDARY FLOW =            252.73       GW BOUNDARY FLOW =             36.30

   INFLOWS - OUTFLOWS =        -429521.25     INFLOWS - OUTFLOWS =         -19818.32
             --------                                   --------

 TOTAL STORAGE CHANGE =        -428041.12         STORAGE CHANGE =         -19791.51
       --------------                             --------------
         LAND SURFACE =                             LAND SURFACE =                  
            SOIL ZONE =         -33650.71              SOIL ZONE =           -949.29
     UNSATURATED ZONE =        -502712.71       UNSATURATED ZONE =         -33632.01
       SATURATED ZONE =         108322.30         SATURATED ZONE =          14789.79

 OVERALL BUDGET ERROR =          -1480.13           BUDGET ERROR =            -26.81


  PERCENT DISCREPANCY =             -0.35    PERCENT DISCREPANCY =             -0.14



1
 SUMMARY VOLUMETRIC BUDGET FOR GSFLOW 
 DATE: 10 14 1990              CUMULATIVE TIME STEP:      14
 MODFLOW STRESS PERIOD      2     CURRENT TIME STEP:      14     ITERATIONS:       6

 -----------------------------------------------------------------------------------

   CUMULATIVE VOLUMES               L**3   RATES FOR THIS TIME STEP           L**3/T
   ------------------                      ------------------------

                                     IN                                         IN
                                     --                                         --
        PRECIPITATION =                            PRECIPITATION =                  
           STREAMFLOW =                               STREAMFLOW =                  
     GW BOUNDARY FLOW =                         GW BOUNDARY FLOW =                  


                                    OUT                                        OUT
                                    ---                                        ---
   EVAPOTRANSPIRATION =         665264.26     EVAPOTRANSPIRATION =          42323.76
           STREAMFLOW =          97921.12             STREAMFLOW =           7278.26
     GW BOUNDARY FLOW =            506.54       GW BOUNDARY FLOW =             36.24

   INFLOWS - OUTFLOWS =        -763691.92     INFLOWS - OUTFLOWS =         -49638.26
             --------                                   --------

 TOTAL STORAGE CHANGE =        -761925.69         STORAGE CHANGE =         -49616.98
       --------------                             --------------
         LAND SURFACE =                             LAND SURFACE =                  
            SOIL ZONE =         -58655.50              SOIL ZONE =          -4416.70
     UNSATURATED ZONE =        -877930.97       UNSATURATED ZONE =         -52123.17
       SATURATED ZONE =         174660.77         SATURATED ZONE =           6922.89

 OVERALL BUDGET ERROR =          -1766.23           BUDGET ERROR =            -21.29


  PERCENT DISCREPANCY =             -0.23    PERCENT DISCREPANCY =             -0.04



1
 SUMMARY VOLUMETRIC BUDGET FOR GSFLOW 
 DATE: 10 21 1990              CUMULATIVE TIME STEP:      21
 MODFLOW STRESS PERIOD      2     CURRENT TIME STEP:      21     ITERATIONS:       6

 -----------------------------------------------------------------------------------

   CUMULATIVE VOLUMES               L**3   RATES FOR THIS TIME STEP           L**3/T
   ------------------                      ------------------------

                                     IN                                         IN
                                     --                                         --
        PRECIPITATION =         188432.87          PRECIPITATION =                  
           STREAMFLOW =                               STREAMFLOW =                  
     GW BOUNDARY FLOW =                         GW BOUNDARY FLOW =                  


                                    OUT                                        OUT
                                    ---                                        ---
   EVAPOTRANSPIRATION =         815540.14     EVAPOTRANSPIRATION =          41709.13
           STREAMFLOW =         159590.30             STREAMFLOW =           9991.00
     GW BOUNDARY FLOW =            760.68       GW BOUNDARY FLOW =             36.37

   INFLOWS - OUTFLOWS =        -787458.26     INFLOWS - OUTFLOWS =         -51736.50
             --------                                   --------

 TOTAL STORAGE CHANGE =        -785637.25         STORAGE CHANGE =         -51741.22
       --------------                             --------------
         LAND SURFACE =          18885.57           LAND SURFACE =         -43558.49
            SOIL ZONE =          48184.23              SOIL ZONE =           2052.88
     UNSATURATED ZONE =       -1091888.73       UNSATURATED ZONE =         -21361.06
       SATURATED ZONE =         239181.69         SATURATED ZONE =          11125.45

 OVERALL BUDGET ERROR =          -1821.01           BUDGET ERROR =              4.72


  PERCENT DISCREPANCY =             -0.19    PERCENT DISCREPANCY =              0.01



1
 SUMMARY VOLUMETRIC BUDGET FOR GSFLOW 
 DATE: 10 28 1990              CUMULATIVE TIME STEP:      28
 MODFLOW STRESS PERIOD      2     CURRENT TIME STEP:      28     ITERATIONS:       6

 -----------------------------------------------------------------------------------

   CUMULATIVE VOLUMES               L**3   RATES FOR THIS TIME STEP           L**3/T
   ------------------                      ------------------------

                                     IN                                         IN
                                     --                                         --
        PRECIPITATION =         188432.87          PRECIPITATION =                  
           STREAMFLOW =                               STREAMFLOW =                  
     GW BOUNDARY FLOW =                         GW BOUNDARY FLOW =                  


                                    OUT                                        OUT
                                    ---                                        ---
   EVAPOTRANSPIRATION =         943978.87     EVAPOTRANSPIRATION =          11840.58
           STREAMFLOW =         220048.36             STREAMFLOW =           8786.07
     GW BOUNDARY FLOW =           1013.84       GW BOUNDARY FLOW =             36.12

   INFLOWS - OUTFLOWS =        -976608.21     INFLOWS - OUTFLOWS =         -20662.77
             --------                                   --------

 TOTAL STORAGE CHANGE =        -974774.04         STORAGE CHANGE =         -20664.88
       --------------                             --------------
         LAND SURFACE =                             LAND SURFACE =                  
            SOIL ZONE =          19145.45              SOIL ZONE =          -3436.27
     UNSATURATED ZONE =       -1275335.95       UNSATURATED ZONE =         -23249.90
       SATURATED ZONE =         281416.45         SATURATED ZONE =           6021.29

 OVERALL BUDGET ERROR =          -1834.16           BUDGET ERROR =              2.11


  PERCENT DISCREPANCY =             -0.16    PERCENT DISCREPANCY =              0.01



1
 SUMMARY VOLUMETRIC BUDGET FOR GSFLOW 
 DATE: 11 04 1990              CUMULATIVE TIME STEP:       4
 MODFLOW STRESS PERIOD      3     CURRENT TIME STEP:      35     ITERATIONS:       6

 -----------------------------------------------------------------------------------

   CUMULATIVE VOLUMES               L**3   RATES FOR THIS TIME STEP           L**3/T
   ------------------                      ------------------------

                                     IN                                         IN
                                     --                                         --
        PRECIPITATION =         703113.06          PRECIPITATION =                  
           STREAMFLOW =                               STREAMFLOW =                  
     GW BOUNDARY FLOW =                         GW BOUNDARY FLOW =                  


                                    OUT                                        OUT
                                    ---                                        ---
   EVAPOTRANSPIRATION =        1004583.20     EVAPOTRANSPIRATION =          26280.47
           STREAMFLOW =         289307.73             STREAMFLOW =          10383.46
     GW BOUNDARY FLOW =           1266.85       GW BOUNDARY FLOW =             36.13

   INFLOWS - OUTFLOWS =        -592044.72     INFLOWS - OUTFLOWS =         -36700.06
             --------                                   --------

 TOTAL STORAGE CHANGE =        -590232.12         STORAGE CHANGE =         -36704.71
       --------------                             --------------
         LAND SURFACE =         132159.65           LAND SURFACE =        -160480.33
            SOIL ZONE =         356552.89              SOIL ZONE =         134353.79
     UNSATURATED ZONE =       -1420989.44       UNSATURATED ZONE =         -20047.25
       SATURATED ZONE =         342044.78         SATURATED ZONE =           9469.08

 OVERALL BUDGET ERROR =          -1812.61           BUDGET ERROR =              4.65


  PERCENT DISCREPANCY =             -0.14    PERCENT DISCREPANCY =              0.01



1
 SUMMARY VOLUMETRIC BUDGET FOR GSFLOW 
 DATE: 11 11 1990              CUMULATIVE TIME STEP:      11
 MODFLOW STRESS PERIOD      3     CURRENT TIME STEP:      42     ITERATIONS:       6

 -----------------------------------------------------------------------------------

   CUMULATIVE VOLUMES               L**3   RATES FOR THIS TIME STEP           L**3/T
   ------------------                      ------------------------

                                     IN                                         IN
                                     --                                         --
        PRECIPITATION =         703113.06          PRECIPITATION =                  
           STREAMFLOW =                               STREAMFLOW =                  
     GW BOUNDARY FLOW =                         GW BOUNDARY FLOW =                  


                                    OUT                                        OUT
                                    ---                                        ---
   EVAPOTRANSPIRATION =        1081776.54     EVAPOTRANSPIRATION =          12147.20
           STREAMFLOW =         358972.18             STREAMFLOW =           9471.82
     GW BOUNDARY FLOW =           1518.91       GW BOUNDARY FLOW =             35.92

   INFLOWS - OUTFLOWS =        -739154.58     INFLOWS - OUTFLOWS =         -21654.94
             --------                                   --------

 TOTAL STORAGE CHANGE =        -737362.68         STORAGE CHANGE =         -21657.63
       --------------                             --------------
         LAND SURFACE =            595.09           LAND SURFACE =          -1416.54
            SOIL ZONE =         429673.46              SOIL ZONE =          -5363.92
     UNSATURATED ZONE =       -1560075.33       UNSATURATED ZONE =         -19837.70
       SATURATED ZONE =         392444.10         SATURATED ZONE =           4960.53

 OVERALL BUDGET ERROR =          -1791.90           BUDGET ERROR =              2.69


  PERCENT DISCREPANCY =             -0.12    PERCENT DISCREPANCY =              0.01



1
 SUMMARY VOLUMETRIC BUDGET FOR GSFLOW 
 DATE: 11 18 1990              CUMULATIVE TIME STEP:      18
 MODFLOW STRESS PERIOD      3     CURRENT TIME STEP:      49     ITERATIONS:       6

 -----------------------------------------------------------------------------------

   CUMULATIVE VOLUMES               L**3   RATES FOR THIS TIME STEP           L**3/T
   ------------------                      ------------------------

                                     IN                                         IN
                                     --                                         --
        PRECIPITATION =         747883.35          PRECIPITATION =                  
           STREAMFLOW =                               STREAMFLOW =                  
     GW BOUNDARY FLOW =                         GW BOUNDARY FLOW =                  


                                    OUT                                        OUT
                                    ---                                        ---
   EVAPOTRANSPIRATION =        1154234.35     EVAPOTRANSPIRATION =           5053.71
           STREAMFLOW =         429515.50             STREAMFLOW =          10518.13
     GW BOUNDARY FLOW =           1770.19       GW BOUNDARY FLOW =             35.88

   INFLOWS - OUTFLOWS =        -837636.69     INFLOWS - OUTFLOWS =         -15607.72
             --------                                   --------

 TOTAL STORAGE CHANGE =        -835860.44         STORAGE CHANGE =         -15610.89
       --------------                             --------------
         LAND SURFACE =           7868.08           LAND SURFACE =          -3691.47
            SOIL ZONE =         412222.11              SOIL ZONE =           -675.27
     UNSATURATED ZONE =       -1693235.73       UNSATURATED ZONE =         -18576.76
       SATURATED ZONE =         437285.11         SATURATED ZONE =           7332.61

 OVERALL BUDGET ERROR =          -1776.25           BUDGET ERROR =              3.17


  PERCENT DISCREPANCY =             -0.11    PERCENT DISCREPANCY =              0.02



1
 SUMMARY VOLUMETRIC BUDGET FOR GSFLOW 
 DATE: 11 25 1990              CUMULATIVE TIME STEP:      25
 MODFLOW STRESS PERIOD      3     CURRENT TIME STEP:      56     ITERATIONS:       6

 -----------------------------------------------------------------------------------

   CUMULATIVE VOLUMES               L**3   RATES FOR THIS TIME STEP           L**3/T
   ------------------                      ------------------------

                                     IN                                         IN
                                     --                                         --
        PRECIPITATION =        1009043.38          PRECIPITATION =         186542.88
           STREAMFLOW =                               STREAMFLOW =                  
     GW BOUNDARY FLOW =                         GW BOUNDARY FLOW =                  


                                    OUT                                        OUT
                                    ---                                        ---
   EVAPOTRANSPIRATION =        1214663.49     EVAPOTRANSPIRATION =           3758.11
           STREAMFLOW =         504363.28             STREAMFLOW =          10608.35
     GW BOUNDARY FLOW =           2021.11       GW BOUNDARY FLOW =             35.79

   INFLOWS - OUTFLOWS =        -712004.50     INFLOWS - OUTFLOWS =         172140.63
             --------                                   --------

 TOTAL STORAGE CHANGE =        -710246.85         STORAGE CHANGE =         172138.47
       --------------                             --------------
         LAND SURFACE =          86180.68           LAND SURFACE =          69567.13
            SOIL ZONE =         537022.41              SOIL ZONE =         114165.45
     UNSATURATED ZONE =       -1820786.55       UNSATURATED ZONE =         -17911.21
       SATURATED ZONE =         487336.61         SATURATED ZONE =           6317.10

 OVERALL BUDGET ERROR =          -1757.65           BUDGET ERROR =              2.16


  PERCENT DISCREPANCY =             -0.10    PERCENT DISCREPANCY =              0.00



1
 SUMMARY VOLUMETRIC BUDGET FOR GSFLOW 
 DATE: 12 02 1990              CUMULATIVE TIME STEP:       2
 MODFLOW STRESS PERIOD      4     CURRENT TIME STEP:      63     ITERATIONS:       6

 -----------------------------------------------------------------------------------

   CUMULATIVE VOLUMES               L**3   RATES FOR THIS TIME STEP           L**3/T
   ------------------                      ------------------------

                                     IN                                         IN
                                     --                                         --
        PRECIPITATION =        1449284.55          PRECIPITATION =                  
           STREAMFLOW =                               STREAMFLOW =                  
     GW BOUNDARY FLOW =                         GW BOUNDARY FLOW =                  


                                    OUT                                        OUT
                                    ---                                        ---
   EVAPOTRANSPIRATION =        1221159.14     EVAPOTRANSPIRATION =            234.69
           STREAMFLOW =         580451.55             STREAMFLOW =          10921.27
     GW BOUNDARY FLOW =           2271.56       GW BOUNDARY FLOW =             35.76

   INFLOWS - OUTFLOWS =        -354597.70     INFLOWS - OUTFLOWS =         -11191.72
             --------                                   --------

 TOTAL STORAGE CHANGE =        -352855.29         STORAGE CHANGE =         -11193.64
       --------------                             --------------
         LAND SURFACE =         486845.62           LAND SURFACE =           -339.04
            SOIL ZONE =         571003.53              SOIL ZONE =            234.74
     UNSATURATED ZONE =       -1943674.72       UNSATURATED ZONE =         -17262.04
       SATURATED ZONE =         532970.29         SATURATED ZONE =           6172.70

 OVERALL BUDGET ERROR =          -1742.41           BUDGET ERROR =              1.93


  PERCENT DISCREPANCY =             -0.10    PERCENT DISCREPANCY =              0.02



1
 SUMMARY VOLUMETRIC BUDGET FOR GSFLOW 
 DATE: 12 09 1990              CUMULATIVE TIME STEP:       9
 MODFLOW STRESS PERIOD      4     CURRENT TIME STEP:      70     ITERATIONS:       6

 -----------------------------------------------------------------------------------

   CUMULATIVE VOLUMES               L**3   RATES FOR THIS TIME STEP           L**3/T
   ------------------                      ------------------------

                                     IN                                         IN
                                     --                                         --
        PRECIPITATION =        1449284.55          PRECIPITATION =                  
           STREAMFLOW =                               STREAMFLOW =                  
     GW BOUNDARY FLOW =                         GW BOUNDARY FLOW =                  


                                    OUT                                        OUT
                                    ---                                        ---
   EVAPOTRANSPIRATION =        1296993.45     EVAPOTRANSPIRATION =          13848.35
           STREAMFLOW =         656556.89             STREAMFLOW =          10629.07
     GW BOUNDARY FLOW =           2521.48       GW BOUNDARY FLOW =             35.64

   INFLOWS - OUTFLOWS =        -506787.27     INFLOWS - OUTFLOWS =         -24513.06
             --------                                   --------

 TOTAL STORAGE CHANGE =        -505055.03         STORAGE CHANGE =         -24513.80
       --------------                             --------------
         LAND SURFACE =          67215.40           LAND SURFACE =         -45889.70
            SOIL ZONE =         919153.44              SOIL ZONE =          33795.18
     UNSATURATED ZONE =       -2061534.26       UNSATURATED ZONE =         -16477.04
       SATURATED ZONE =         570110.38         SATURATED ZONE =           4057.76

 OVERALL BUDGET ERROR =          -1732.24           BUDGET ERROR =              0.74


  PERCENT DISCREPANCY =             -0.09    PERCENT DISCREPANCY =              0.00



1
 SUMMARY VOLUMETRIC BUDGET FOR GSFLOW 
 DATE: 12 16 1990              CUMULATIVE TIME STEP:      16
 MODFLOW STRESS PERIOD      4     CURRENT TIME STEP:      77     ITERATIONS:       5

 -----------------------------------------------------------------------------------

   CUMULATIVE VOLUMES               L**3   RATES FOR THIS TIME STEP           L**3/T
   ------------------                      ------------------------

                                     IN                                         IN
                                     --                                         --
        PRECIPITATION =        1804962.84          PRECIPITATION =                  
           STREAMFLOW =                               STREAMFLOW =                  
     GW BOUNDARY FLOW =                         GW BOUNDARY FLOW =                  


                                    OUT                                        OUT
                                    ---                                        ---
   EVAPOTRANSPIRATION =        1325272.89     EVAPOTRANSPIRATION =                  
           STREAMFLOW =         734223.94             STREAMFLOW =          11286.65
     GW BOUNDARY FLOW =           2770.83       GW BOUNDARY FLOW =             35.60

   INFLOWS - OUTFLOWS =        -257304.83     INFLOWS - OUTFLOWS =         -11322.26
             --------                                   --------

 TOTAL STORAGE CHANGE =        -255581.42         STORAGE CHANGE =         -11323.13
       --------------                             --------------
         LAND SURFACE =         252566.26           LAND SURFACE =                  
            SOIL ZONE =        1065402.93              SOIL ZONE =            149.10
     UNSATURATED ZONE =       -2174829.04       UNSATURATED ZONE =         -15924.36
       SATURATED ZONE =         601278.42         SATURATED ZONE =           4452.13

 OVERALL BUDGET ERROR =          -1723.40           BUDGET ERROR =              0.88


  PERCENT DISCREPANCY =             -0.08    PERCENT DISCREPANCY =              0.01



1
 SUMMARY VOLUMETRIC BUDGET FOR GSFLOW 
 DATE: 12 23 1990              CUMULATIVE TIME STEP:      23
 MODFLOW STRESS PERIOD      4     CURRENT TIME STEP:      84     ITERATIONS:       6

 -----------------------------------------------------------------------------------

   CUMULATIVE VOLUMES               L**3   RATES FOR THIS TIME STEP           L**3/T
   ------------------                      ------------------------

                                     IN                                         IN
                                     --                                         --
        PRECIPITATION =        2276236.55          PRECIPITATION =                  
           STREAMFLOW =                               STREAMFLOW =                  
     GW BOUNDARY FLOW =              0.08       GW BOUNDARY FLOW =              0.04


                                    OUT                                        OUT
                                    ---                                        ---
   EVAPOTRANSPIRATION =        1326330.49     EVAPOTRANSPIRATION =                  
           STREAMFLOW =         813682.63             STREAMFLOW =          11392.59
     GW BOUNDARY FLOW =           3019.83       GW BOUNDARY FLOW =             35.57

   INFLOWS - OUTFLOWS =         133203.68     INFLOWS - OUTFLOWS =         -11428.12
             --------                                   --------

 TOTAL STORAGE CHANGE =         134926.28         STORAGE CHANGE =         -11427.95
       --------------                             --------------
         LAND SURFACE =         722784.33           LAND SURFACE =                  
            SOIL ZONE =        1066492.15              SOIL ZONE =            159.23
     UNSATURATED ZONE =       -2284042.18       UNSATURATED ZONE =         -15361.29
       SATURATED ZONE =         629691.98         SATURATED ZONE =           3774.10

 OVERALL BUDGET ERROR =          -1722.60           BUDGET ERROR =             -0.16


  PERCENT DISCREPANCY =             -0.08    PERCENT DISCREPANCY =             -0.00



1
 SUMMARY VOLUMETRIC BUDGET FOR GSFLOW 
 DATE: 12 30 1990              CUMULATIVE TIME STEP:      30
 MODFLOW STRESS PERIOD      4     CURRENT TIME STEP:      91     ITERATIONS:       5

 -----------------------------------------------------------------------------------

   CUMULATIVE VOLUMES               L**3   RATES FOR THIS TIME STEP           L**3/T
   ------------------                      ------------------------

                                     IN                                         IN
                                     --                                         --
        PRECIPITATION =        2276236.55          PRECIPITATION =                  
           STREAMFLOW =                               STREAMFLOW =                  
     GW BOUNDARY FLOW =              0.78       GW BOUNDARY FLOW =              0.14


                                    OUT                                        OUT
                                    ---                                        ---
   EVAPOTRANSPIRATION =        1326897.99     EVAPOTRANSPIRATION =                  
           STREAMFLOW =         893842.76             STREAMFLOW =          11496.25
     GW BOUNDARY FLOW =           3268.91       GW BOUNDARY FLOW =             35.59

   INFLOWS - OUTFLOWS =          52227.66     INFLOWS - OUTFLOWS =         -11531.70
             --------                                   --------

 TOTAL STORAGE CHANGE =          53958.42         STORAGE CHANGE =         -11529.51
       --------------                             --------------
         LAND SURFACE =         722216.94           LAND SURFACE =                  
            SOIL ZONE =        1067650.23              SOIL ZONE =            170.68
     UNSATURATED ZONE =       -2389353.21       UNSATURATED ZONE =         -14810.36
       SATURATED ZONE =         653444.46         SATURATED ZONE =           3110.17

 OVERALL BUDGET ERROR =          -1730.76           BUDGET ERROR =             -2.19


  PERCENT DISCREPANCY =             -0.08    PERCENT DISCREPANCY =             -0.02



1
 SUMMARY VOLUMETRIC BUDGET FOR GSFLOW 
 DATE: 01 06 1991              CUMULATIVE TIME STEP:       6
 MODFLOW STRESS PERIOD      5     CURRENT TIME STEP:      98     ITERATIONS:       5

 -----------------------------------------------------------------------------------

   CUMULATIVE VOLUMES               L**3   RATES FOR THIS TIME STEP           L**3/T
   ------------------                      ------------------------

                                     IN                                         IN
                                     --                                         --
        PRECIPITATION =        2276236.55          PRECIPITATION =                  
           STREAMFLOW =                               STREAMFLOW =                  
     GW BOUNDARY FLOW =              2.10       GW BOUNDARY FLOW =              0.22


                                    OUT                                        OUT
                                    ---                                        ---
   EVAPOTRANSPIRATION =        1354830.51     EVAPOTRANSPIRATION =           3327.36
           STREAMFLOW =         974682.50             STREAMFLOW =          11583.32
     GW BOUNDARY FLOW =           3518.77       GW BOUNDARY FLOW =             35.75

   INFLOWS - OUTFLOWS =         -56793.13     INFLOWS - OUTFLOWS =         -14946.19
             --------                                   --------

 TOTAL STORAGE CHANGE =         -55039.00         STORAGE CHANGE =         -14941.84
       --------------                             --------------
         LAND SURFACE =         585426.31           LAND SURFACE =          -8558.21
            SOIL ZONE =        1177779.79              SOIL ZONE =           5414.00
     UNSATURATED ZONE =       -2490706.12       UNSATURATED ZONE =         -14271.99
       SATURATED ZONE =         672461.02         SATURATED ZONE =           2474.35

 OVERALL BUDGET ERROR =          -1754.13           BUDGET ERROR =             -4.35


  PERCENT DISCREPANCY =             -0.08    PERCENT DISCREPANCY =             -0.03



1
 SUMMARY VOLUMETRIC BUDGET FOR GSFLOW 
 DATE: 01 13 1991              CUMULATIVE TIME STEP:      13
 MODFLOW STRESS PERIOD      5     CURRENT TIME STEP:     105     ITERATIONS:       6

 -----------------------------------------------------------------------------------

   CUMULATIVE VOLUMES               L**3   RATES FOR THIS TIME STEP           L**3/T
   ------------------                      ------------------------

                                     IN                                         IN
                                     --                                         --
        PRECIPITATION =        2596386.94          PRECIPITATION =          10327.43
           STREAMFLOW =                               STREAMFLOW =                  
     GW BOUNDARY FLOW =              4.02       GW BOUNDARY FLOW =              0.31


                                    OUT                                        OUT
                                    ---                                        ---
   EVAPOTRANSPIRATION =        1422995.05     EVAPOTRANSPIRATION =          18924.95
           STREAMFLOW =        1055746.60             STREAMFLOW =          11497.73
     GW BOUNDARY FLOW =           3768.96       GW BOUNDARY FLOW =             35.72

   INFLOWS - OUTFLOWS =         113880.36     INFLOWS - OUTFLOWS =         -20130.66
             --------                                   --------

 TOTAL STORAGE CHANGE =         115665.55         STORAGE CHANGE =         -20127.72
       --------------                             --------------
         LAND SURFACE =         517131.86           LAND SURFACE =        -134708.01
            SOIL ZONE =        1500721.14              SOIL ZONE =         127103.52
     UNSATURATED ZONE =       -2588004.26       UNSATURATED ZONE =         -13697.20
       SATURATED ZONE =         685816.81         SATURATED ZONE =           1173.96

 OVERALL BUDGET ERROR =          -1785.19           BUDGET ERROR =             -2.93


  PERCENT DISCREPANCY =             -0.07    PERCENT DISCREPANCY =             -0.01



1
 SUMMARY VOLUMETRIC BUDGET FOR GSFLOW 
 DATE: 01 20 1991              CUMULATIVE TIME STEP:      20
 MODFLOW STRESS PERIOD      5     CURRENT TIME STEP:     112     ITERATIONS:       5

 -----------------------------------------------------------------------------------

   CUMULATIVE VOLUMES               L**3   RATES FOR THIS TIME STEP           L**3/T
   ------------------                      ------------------------

                                     IN                                         IN
                                     --                                         --
        PRECIPITATION =        2596386.94          PRECIPITATION =                  
           STREAMFLOW =                               STREAMFLOW =                  
     GW BOUNDARY FLOW =              6.56       GW BOUNDARY FLOW =              0.40


                                    OUT                                        OUT
                                    ---                                        ---
   EVAPOTRANSPIRATION =        1501573.18     EVAPOTRANSPIRATION =           2597.79
           STREAMFLOW =        1137394.43             STREAMFLOW =          11700.08
     GW BOUNDARY FLOW =           4019.17       GW BOUNDARY FLOW =             35.74

   INFLOWS - OUTFLOWS =         -46593.28     INFLOWS - OUTFLOWS =         -14333.22
             --------                                   --------

 TOTAL STORAGE CHANGE =         -44762.06         STORAGE CHANGE =         -14325.48
       --------------                             --------------
         LAND SURFACE =         342485.13           LAND SURFACE =           -464.47
            SOIL ZONE =        1598784.89              SOIL ZONE =          -1910.81
     UNSATURATED ZONE =       -2681430.10       UNSATURATED ZONE =         -13122.10
       SATURATED ZONE =         695398.02         SATURATED ZONE =           1171.91

 OVERALL BUDGET ERROR =          -1831.22           BUDGET ERROR =             -7.74


  PERCENT DISCREPANCY =             -0.07    PERCENT DISCREPANCY =             -0.05



1
 SUMMARY VOLUMETRIC BUDGET FOR GSFLOW 
 DATE: 01 27 1991              CUMULATIVE TIME STEP:      27
 MODFLOW STRESS PERIOD      5     CURRENT TIME STEP:     119     ITERATIONS:       5

 -----------------------------------------------------------------------------------

   CUMULATIVE VOLUMES               L**3   RATES FOR THIS TIME STEP           L**3/T
   ------------------                      ------------------------

                                     IN                                         IN
                                     --                                         --
        PRECIPITATION =        2596386.94          PRECIPITATION =                  
           STREAMFLOW =                               STREAMFLOW =                  
     GW BOUNDARY FLOW =              9.67       GW BOUNDARY FLOW =              0.48


                                    OUT                                        OUT
                                    ---                                        ---
   EVAPOTRANSPIRATION =        1528433.08     EVAPOTRANSPIRATION =           1840.26
           STREAMFLOW =        1219520.33             STREAMFLOW =          11764.51
     GW BOUNDARY FLOW =           4269.35       GW BOUNDARY FLOW =             35.74

   INFLOWS - OUTFLOWS =        -155826.15     INFLOWS - OUTFLOWS =         -13640.02
             --------                                   --------

 TOTAL STORAGE CHANGE =        -153934.39         STORAGE CHANGE =         -13630.87
       --------------                             --------------
         LAND SURFACE =         307905.33           LAND SURFACE =           -546.58
            SOIL ZONE =        1608269.81              SOIL ZONE =          -1082.42
     UNSATURATED ZONE =       -2771335.15       UNSATURATED ZONE =         -12623.06
       SATURATED ZONE =         701225.61         SATURATED ZONE =            621.20

 OVERALL BUDGET ERROR =          -1891.76           BUDGET ERROR =             -9.15


  PERCENT DISCREPANCY =             -0.07    PERCENT DISCREPANCY =             -0.07



1
 SUMMARY VOLUMETRIC BUDGET FOR GSFLOW 
 DATE: 02 03 1991              CUMULATIVE TIME STEP:       3
 MODFLOW STRESS PERIOD      6     CURRENT TIME STEP:     126     ITERATIONS:       5

 -----------------------------------------------------------------------------------

   CUMULATIVE VOLUMES               L**3   RATES FOR THIS TIME STEP           L**3/T
   ------------------                      ------------------------

                                     IN                                         IN
                                     --                                         --
        PRECIPITATION =        3228422.31          PRECIPITATION =          30459.53
           STREAMFLOW =                               STREAMFLOW =                  
     GW BOUNDARY FLOW =             13.32       GW BOUNDARY FLOW =              0.56


                                    OUT                                        OUT
                                    ---                                        ---
   EVAPOTRANSPIRATION =        1637397.82     EVAPOTRANSPIRATION =          21777.54
           STREAMFLOW =        1302016.79             STREAMFLOW =          11816.36
     GW BOUNDARY FLOW =           4519.46       GW BOUNDARY FLOW =             35.72

   INFLOWS - OUTFLOWS =         284501.57     INFLOWS - OUTFLOWS =          -3169.54
             --------                                   --------

 TOTAL STORAGE CHANGE =         286463.10         STORAGE CHANGE =          -3159.06
       --------------                             --------------
         LAND SURFACE =         148156.03           LAND SURFACE =         -26520.09
            SOIL ZONE =        2293825.92              SOIL ZONE =          35557.99
     UNSATURATED ZONE =       -2857974.88       UNSATURATED ZONE =         -12171.13
       SATURATED ZONE =         702456.03         SATURATED ZONE =            -25.82

 OVERALL BUDGET ERROR =          -1961.53           BUDGET ERROR =            -10.48


  PERCENT DISCREPANCY =             -0.06    PERCENT DISCREPANCY =             -0.03



1
 SUMMARY VOLUMETRIC BUDGET FOR GSFLOW 
 DATE: 02 10 1991              CUMULATIVE TIME STEP:      10
 MODFLOW STRESS PERIOD      6     CURRENT TIME STEP:     133     ITERATIONS:       5

 -----------------------------------------------------------------------------------

   CUMULATIVE VOLUMES               L**3   RATES FOR THIS TIME STEP           L**3/T
   ------------------                      ------------------------

                                     IN                                         IN
                                     --                                         --
        PRECIPITATION =        3510173.01          PRECIPITATION =                  
           STREAMFLOW =                               STREAMFLOW =                  
     GW BOUNDARY FLOW =             17.50       GW BOUNDARY FLOW =              0.63


                                    OUT                                        OUT
                                    ---                                        ---
   EVAPOTRANSPIRATION =        1807094.10     EVAPOTRANSPIRATION =          25968.38
           STREAMFLOW =        1384952.33             STREAMFLOW =          11871.54
     GW BOUNDARY FLOW =           4769.46       GW BOUNDARY FLOW =             35.71

   INFLOWS - OUTFLOWS =         313374.62     INFLOWS - OUTFLOWS =         -37875.01
             --------                                   --------

 TOTAL STORAGE CHANGE =         315414.47         STORAGE CHANGE =         -37863.20
       --------------                             --------------
         LAND SURFACE =          66705.78           LAND SURFACE =          -7439.35
            SOIL ZONE =        2489180.74              SOIL ZONE =         -18263.62
     UNSATURATED ZONE =       -2941047.15       UNSATURATED ZONE =         -11664.60
       SATURATED ZONE =         700575.10         SATURATED ZONE =           -495.63

 OVERALL BUDGET ERROR =          -2039.85           BUDGET ERROR =            -11.81


  PERCENT DISCREPANCY =             -0.06    PERCENT DISCREPANCY =             -0.03



1
 SUMMARY VOLUMETRIC BUDGET FOR GSFLOW 
 DATE: 02 17 1991              CUMULATIVE TIME STEP:      17
 MODFLOW STRESS PERIOD      6     CURRENT TIME STEP:     140     ITERATIONS:       5

 -----------------------------------------------------------------------------------

   CUMULATIVE VOLUMES               L**3   RATES FOR THIS TIME STEP           L**3/T
   ------------------                      ------------------------

                                     IN                                         IN
                                     --                                         --
        PRECIPITATION =        3510173.01          PRECIPITATION =                  
           STREAMFLOW =                               STREAMFLOW =                  
     GW BOUNDARY FLOW =             22.18       GW BOUNDARY FLOW =              0.70


                                    OUT                                        OUT
                                    ---                                        ---
   EVAPOTRANSPIRATION =        2052658.68     EVAPOTRANSPIRATION =          24098.24
           STREAMFLOW =        1468222.48             STREAMFLOW =          11910.77
     GW BOUNDARY FLOW =           5019.35       GW BOUNDARY FLOW =             35.67

   INFLOWS - OUTFLOWS =         -15705.32     INFLOWS - OUTFLOWS =         -36043.99
             --------                                   --------

 TOTAL STORAGE CHANGE =         -13574.87         STORAGE CHANGE =         -36030.44
       --------------                             --------------
         LAND SURFACE =          14950.27           LAND SURFACE =           -975.14
            SOIL ZONE =        2296935.83              SOIL ZONE =         -22971.82
     UNSATURATED ZONE =       -3020420.87       UNSATURATED ZONE =         -11063.34
       SATURATED ZONE =         694959.90         SATURATED ZONE =          -1020.13

 OVERALL BUDGET ERROR =          -2130.45           BUDGET ERROR =            -13.55


  PERCENT DISCREPANCY =             -0.06    PERCENT DISCREPANCY =             -0.04



1
 SUMMARY VOLUMETRIC BUDGET FOR GSFLOW 
 DATE: 02 24 1991              CUMULATIVE TIME STEP:      24
 MODFLOW STRESS PERIOD      6     CURRENT TIME STEP:     147     ITERATIONS:       5

 -----------------------------------------------------------------------------------

   CUMULATIVE VOLUMES               L**3   RATES FOR THIS TIME STEP           L**3/T
   ------------------                      ------------------------

                                     IN                                         IN
                                     --                                         --
        PRECIPITATION =        3510173.01          PRECIPITATION =                  
           STREAMFLOW =                               STREAMFLOW =                  
     GW BOUNDARY FLOW =             27.33       GW BOUNDARY FLOW =              0.76


                                    OUT                                        OUT
                                    ---                                        ---
   EVAPOTRANSPIRATION =        2268626.26     EVAPOTRANSPIRATION =          21972.48
           STREAMFLOW =        1551685.52             STREAMFLOW =          11916.08
     GW BOUNDARY FLOW =           5268.38       GW BOUNDARY FLOW =             35.50

   INFLOWS - OUTFLOWS =        -315379.82     INFLOWS - OUTFLOWS =         -33923.30
             --------                                   --------

 TOTAL STORAGE CHANGE =        -313147.36         STORAGE CHANGE =         -33908.02
       --------------                             --------------
         LAND SURFACE =           6004.72           LAND SURFACE =           -187.76
            SOIL ZONE =        2091430.62              SOIL ZONE =         -21475.05
     UNSATURATED ZONE =       -3096279.28       UNSATURATED ZONE =         -10656.97
       SATURATED ZONE =         685696.58         SATURATED ZONE =          -1588.23

 OVERALL BUDGET ERROR =          -2232.46           BUDGET ERROR =            -15.28


  PERCENT DISCREPANCY =             -0.06    PERCENT DISCREPANCY =             -0.05



1
 SUMMARY VOLUMETRIC BUDGET FOR GSFLOW 
 DATE: 03 03 1991              CUMULATIVE TIME STEP:       3
 MODFLOW STRESS PERIOD      7     CURRENT TIME STEP:     154     ITERATIONS:       5

 -----------------------------------------------------------------------------------

   CUMULATIVE VOLUMES               L**3   RATES FOR THIS TIME STEP           L**3/T
   ------------------                      ------------------------

                                     IN                                         IN
                                     --                                         --
        PRECIPITATION =        6220189.63          PRECIPITATION =        1243187.24
           STREAMFLOW =                               STREAMFLOW =                  
     GW BOUNDARY FLOW =             32.93       GW BOUNDARY FLOW =              0.83


                                    OUT                                        OUT
                                    ---                                        ---
   EVAPOTRANSPIRATION =        2421925.87     EVAPOTRANSPIRATION =           8350.59
           STREAMFLOW =        1634634.84             STREAMFLOW =          11826.01
     GW BOUNDARY FLOW =           5516.14       GW BOUNDARY FLOW =             35.32

   INFLOWS - OUTFLOWS =        2158145.71     INFLOWS - OUTFLOWS =        1222976.14
             --------                                   --------

 TOTAL STORAGE CHANGE =        2160481.03         STORAGE CHANGE =        1222992.63
       --------------                             --------------
         LAND SURFACE =        2351702.99           LAND SURFACE =         893791.18
            SOIL ZONE =        2307102.47              SOIL ZONE =         341861.05
     UNSATURATED ZONE =       -3169031.03       UNSATURATED ZONE =         -10247.49
       SATURATED ZONE =         670706.59         SATURATED ZONE =          -2412.12

 OVERALL BUDGET ERROR =          -2335.31           BUDGET ERROR =            -16.49


  PERCENT DISCREPANCY =             -0.04    PERCENT DISCREPANCY =             -0.00



1
 SUMMARY VOLUMETRIC BUDGET FOR GSFLOW 
 DATE: 03 10 1991              CUMULATIVE TIME STEP:      10
 MODFLOW STRESS PERIOD      7     CURRENT TIME STEP:     161     ITERATIONS:       5

 -----------------------------------------------------------------------------------

   CUMULATIVE VOLUMES               L**3   RATES FOR THIS TIME STEP           L**3/T
   ------------------                      ------------------------

                                     IN                                         IN
                                     --                                         --
        PRECIPITATION =        8746030.42          PRECIPITATION =          32888.55
           STREAMFLOW =                               STREAMFLOW =                  
     GW BOUNDARY FLOW =             38.97       GW BOUNDARY FLOW =              0.89


                                    OUT                                        OUT
                                    ---                                        ---
   EVAPOTRANSPIRATION =        2486055.80     EVAPOTRANSPIRATION =           7392.34
           STREAMFLOW =        1741220.66             STREAMFLOW =          12557.88
     GW BOUNDARY FLOW =           5763.49       GW BOUNDARY FLOW =             35.23

   INFLOWS - OUTFLOWS =        4513029.45     INFLOWS - OUTFLOWS =          12903.98
             --------                                   --------

 TOTAL STORAGE CHANGE =        4515443.30         STORAGE CHANGE =          12922.22
       --------------                             --------------
         LAND SURFACE =        2489047.44           LAND SURFACE =         -20139.62
            SOIL ZONE =        4557242.53              SOIL ZONE =          36779.35
     UNSATURATED ZONE =       -3186865.45       UNSATURATED ZONE =          -1430.38
       SATURATED ZONE =         656018.78         SATURATED ZONE =          -2287.12

 OVERALL BUDGET ERROR =          -2413.85           BUDGET ERROR =            -18.24


  PERCENT DISCREPANCY =             -0.03    PERCENT DISCREPANCY =             -0.06



1
 SUMMARY VOLUMETRIC BUDGET FOR GSFLOW 
 DATE: 03 17 1991              CUMULATIVE TIME STEP:      17
 MODFLOW STRESS PERIOD      7     CURRENT TIME STEP:     168     ITERATIONS:       5

 -----------------------------------------------------------------------------------

   CUMULATIVE VOLUMES               L**3   RATES FOR THIS TIME STEP           L**3/T
   ------------------                      ------------------------

                                     IN                                         IN
                                     --                                         --
        PRECIPITATION =        9897129.71          PRECIPITATION =         157865.04
           STREAMFLOW =                               STREAMFLOW =                  
     GW BOUNDARY FLOW =             45.44       GW BOUNDARY FLOW =              0.95


                                    OUT                                        OUT
                                    ---                                        ---
   EVAPOTRANSPIRATION =        2509521.27     EVAPOTRANSPIRATION =           6885.13
           STREAMFLOW =        1830449.24             STREAMFLOW =          12803.71
     GW BOUNDARY FLOW =           6009.67       GW BOUNDARY FLOW =             35.11

   INFLOWS - OUTFLOWS =        5551194.98     INFLOWS - OUTFLOWS =         138142.04
             --------                                   --------

 TOTAL STORAGE CHANGE =        5553720.01         STORAGE CHANGE =         138161.39
       --------------                             --------------
         LAND SURFACE =        3616636.03           LAND SURFACE =         151296.14
            SOIL ZONE =        4495536.31              SOIL ZONE =          -8449.32
     UNSATURATED ZONE =       -3198603.62       UNSATURATED ZONE =          -2102.47
       SATURATED ZONE =         640151.30         SATURATED ZONE =          -2582.97

 OVERALL BUDGET ERROR =          -2525.03           BUDGET ERROR =            -19.35


  PERCENT DISCREPANCY =             -0.03    PERCENT DISCREPANCY =             -0.01



1
 SUMMARY VOLUMETRIC BUDGET FOR GSFLOW 
 DATE: 03 24 1991              CUMULATIVE TIME STEP:      24
 MODFLOW STRESS PERIOD      7     CURRENT TIME STEP:     175     ITERATIONS:       5

 -----------------------------------------------------------------------------------

   CUMULATIVE VOLUMES               L**3   RATES FOR THIS TIME STEP           L**3/T
   ------------------                      ------------------------

                                     IN                                         IN
                                     --                                         --
        PRECIPITATION =        1.1673D+07          PRECIPITATION =        1230031.83
           STREAMFLOW =                               STREAMFLOW =                  
     GW BOUNDARY FLOW =             52.31       GW BOUNDARY FLOW =              1.01


                                    OUT                                        OUT
                                    ---                                        ---
   EVAPOTRANSPIRATION =        2544156.20     EVAPOTRANSPIRATION =           4289.47
           STREAMFLOW =        1921650.88             STREAMFLOW =          13199.42
     GW BOUNDARY FLOW =           6254.97       GW BOUNDARY FLOW =             35.00

   INFLOWS - OUTFLOWS =        7201101.76     INFLOWS - OUTFLOWS =        1212508.96
             --------                                   --------

 TOTAL STORAGE CHANGE =        7203742.32         STORAGE CHANGE =        1212528.60
       --------------                             --------------
         LAND SURFACE =        5346769.67           LAND SURFACE =        1227877.70
            SOIL ZONE =        4449221.91              SOIL ZONE =         -10338.76
     UNSATURATED ZONE =       -3214451.95       UNSATURATED ZONE =          -2402.79
       SATURATED ZONE =         622202.69         SATURATED ZONE =          -2607.54

 OVERALL BUDGET ERROR =          -2640.56           BUDGET ERROR =            -19.64


  PERCENT DISCREPANCY =             -0.02    PERCENT DISCREPANCY =             -0.00



1
 SUMMARY VOLUMETRIC BUDGET FOR GSFLOW 
 DATE: 03 31 1991              CUMULATIVE TIME STEP:      31
 MODFLOW STRESS PERIOD      7     CURRENT TIME STEP:     182     ITERATIONS:       5

 -----------------------------------------------------------------------------------

   CUMULATIVE VOLUMES               L**3   RATES FOR THIS TIME STEP           L**3/T
   ------------------                      ------------------------

                                     IN                                         IN
                                     --                                         --
        PRECIPITATION =        1.2495D+07          PRECIPITATION =                  
           STREAMFLOW =                               STREAMFLOW =                  
     GW BOUNDARY FLOW =             59.57       GW BOUNDARY FLOW =              1.06


                                    OUT                                        OUT
                                    ---                                        ---
   EVAPOTRANSPIRATION =        2665175.07     EVAPOTRANSPIRATION =          47925.31
           STREAMFLOW =        2016750.35             STREAMFLOW =          14254.88
     GW BOUNDARY FLOW =           6499.58       GW BOUNDARY FLOW =             34.92

   INFLOWS - OUTFLOWS =        7806959.86     INFLOWS - OUTFLOWS =         -62214.05
             --------                                   --------

 TOTAL STORAGE CHANGE =        7809740.27         STORAGE CHANGE =         -62193.79
       --------------                             --------------
         LAND SURFACE =        5891403.37           LAND SURFACE =        -150773.77
            SOIL ZONE =        4544897.82              SOIL ZONE =          92455.84
     UNSATURATED ZONE =       -3230091.46       UNSATURATED ZONE =          -1181.27
       SATURATED ZONE =         603530.54         SATURATED ZONE =          -2694.59

 OVERALL BUDGET ERROR =          -2780.41           BUDGET ERROR =            -20.26


  PERCENT DISCREPANCY =             -0.02    PERCENT DISCREPANCY =             -0.03



1
 SUMMARY VOLUMETRIC BUDGET FOR GSFLOW 
 DATE: 04 07 1991              CUMULATIVE TIME STEP:       7
 MODFLOW STRESS PERIOD      8     CURRENT TIME STEP:     189     ITERATIONS:       6

 -----------------------------------------------------------------------------------

   CUMULATIVE VOLUMES               L**3   RATES FOR THIS TIME STEP           L**3/T
   ------------------                      ------------------------

                                     IN                                         IN
                                     --                                         --
        PRECIPITATION =        1.3018D+07          PRECIPITATION =                  
           STREAMFLOW =                               STREAMFLOW =                  
     GW BOUNDARY FLOW =             67.21       GW BOUNDARY FLOW =              1.11


                                    OUT                                        OUT
                                    ---                                        ---
   EVAPOTRANSPIRATION =        2973058.34     EVAPOTRANSPIRATION =          15898.60
           STREAMFLOW =        2245382.74             STREAMFLOW =          42480.80
     GW BOUNDARY FLOW =           6745.68       GW BOUNDARY FLOW =             35.32

   INFLOWS - OUTFLOWS =        7792617.20     INFLOWS - OUTFLOWS =         -58413.61
             --------                                   --------

 TOTAL STORAGE CHANGE =        7795484.60         STORAGE CHANGE =         -58405.06
       --------------                             --------------
         LAND SURFACE =        4251813.71           LAND SURFACE =         -72897.15
            SOIL ZONE =        6152309.86              SOIL ZONE =           5368.36
     UNSATURATED ZONE =       -3195476.95       UNSATURATED ZONE =          11028.43
       SATURATED ZONE =         586837.99         SATURATED ZONE =          -1904.70

 OVERALL BUDGET ERROR =          -2867.41           BUDGET ERROR =             -8.55


  PERCENT DISCREPANCY =             -0.02    PERCENT DISCREPANCY =             -0.01



1
 SUMMARY VOLUMETRIC BUDGET FOR GSFLOW 
 DATE: 04 14 1991              CUMULATIVE TIME STEP:      14
 MODFLOW STRESS PERIOD      8     CURRENT TIME STEP:     196     ITERATIONS:      10

 -----------------------------------------------------------------------------------

   CUMULATIVE VOLUMES               L**3   RATES FOR THIS TIME STEP           L**3/T
   ------------------                      ------------------------

                                     IN                                         IN
                                     --                                         --
        PRECIPITATION =        1.3018D+07          PRECIPITATION =                  
           STREAMFLOW =                               STREAMFLOW =                  
     GW BOUNDARY FLOW =             75.17       GW BOUNDARY FLOW =              1.16


                                    OUT                                        OUT
                                    ---                                        ---
   EVAPOTRANSPIRATION =        3156981.17     EVAPOTRANSPIRATION =          42060.22
           STREAMFLOW =        2672589.37             STREAMFLOW =          74175.83
     GW BOUNDARY FLOW =           6994.07       GW BOUNDARY FLOW =             35.60

   INFLOWS - OUTFLOWS =        7181247.30     INFLOWS - OUTFLOWS =        -116270.49
             --------                                   --------

 TOTAL STORAGE CHANGE =        7184147.14         STORAGE CHANGE =        -116269.83
       --------------                             --------------
         LAND SURFACE =        3591590.24           LAND SURFACE =        -191145.76
            SOIL ZONE =        6136948.87              SOIL ZONE =          65840.92
     UNSATURATED ZONE =       -3121540.58       UNSATURATED ZONE =          10064.47
       SATURATED ZONE =         577148.61         SATURATED ZONE =          -1029.46

 OVERALL BUDGET ERROR =          -2899.84           BUDGET ERROR =             -0.66


  PERCENT DISCREPANCY =             -0.02    PERCENT DISCREPANCY =             -0.00



1
 SUMMARY VOLUMETRIC BUDGET FOR GSFLOW 
 DATE: 04 21 1991              CUMULATIVE TIME STEP:      21
 MODFLOW STRESS PERIOD      8     CURRENT TIME STEP:     203     ITERATIONS:       9

 -----------------------------------------------------------------------------------

   CUMULATIVE VOLUMES               L**3   RATES FOR THIS TIME STEP           L**3/T
   ------------------                      ------------------------

                                     IN                                         IN
                                     --                                         --
        PRECIPITATION =        1.3034D+07          PRECIPITATION =                  
           STREAMFLOW =                               STREAMFLOW =                  
     GW BOUNDARY FLOW =             83.44       GW BOUNDARY FLOW =              1.20


                                    OUT                                        OUT
                                    ---                                        ---
   EVAPOTRANSPIRATION =        3410602.17     EVAPOTRANSPIRATION =          46843.68
           STREAMFLOW =        3224232.09             STREAMFLOW =          90946.27
     GW BOUNDARY FLOW =           7243.14       GW BOUNDARY FLOW =             35.67

   INFLOWS - OUTFLOWS =        6392068.13     INFLOWS - OUTFLOWS =        -137824.42
             --------                                   --------

 TOTAL STORAGE CHANGE =        6394980.46         STORAGE CHANGE =        -137823.50
       --------------                             --------------
         LAND SURFACE =        2434561.50           LAND SURFACE =        -213934.43
            SOIL ZONE =        6434995.02              SOIL ZONE =          64619.36
     UNSATURATED ZONE =       -3047953.90       UNSATURATED ZONE =          12020.89
       SATURATED ZONE =         573377.84         SATURATED ZONE =           -529.32

 OVERALL BUDGET ERROR =          -2912.33           BUDGET ERROR =             -0.92


  PERCENT DISCREPANCY =             -0.02    PERCENT DISCREPANCY =             -0.00



1
 SUMMARY VOLUMETRIC BUDGET FOR GSFLOW 
 DATE: 04 28 1991              CUMULATIVE TIME STEP:      28
 MODFLOW STRESS PERIOD      8     CURRENT TIME STEP:     210     ITERATIONS:       6

 -----------------------------------------------------------------------------------

   CUMULATIVE VOLUMES               L**3   RATES FOR THIS TIME STEP           L**3/T
   ------------------                      ------------------------

                                     IN                                         IN
                                     --                                         --
        PRECIPITATION =        1.3303D+07          PRECIPITATION =                  
           STREAMFLOW =                               STREAMFLOW =                  
     GW BOUNDARY FLOW =             91.97       GW BOUNDARY FLOW =              1.24


                                    OUT                                        OUT
                                    ---                                        ---
   EVAPOTRANSPIRATION =        3678704.13     EVAPOTRANSPIRATION =          58070.50
           STREAMFLOW =        3872967.51             STREAMFLOW =          92594.23
     GW BOUNDARY FLOW =           7492.51       GW BOUNDARY FLOW =             35.58

   INFLOWS - OUTFLOWS =        5744358.32     INFLOWS - OUTFLOWS =        -150699.06
             --------                                   --------

 TOTAL STORAGE CHANGE =        5747282.59         STORAGE CHANGE =        -150697.26
       --------------                             --------------
         LAND SURFACE =        1696015.43           LAND SURFACE =        -133870.58
            SOIL ZONE =        6442936.86              SOIL ZONE =         -28052.17
     UNSATURATED ZONE =       -2963897.93       UNSATURATED ZONE =          11447.28
       SATURATED ZONE =         572228.23         SATURATED ZONE =           -221.80

 OVERALL BUDGET ERROR =          -2924.26           BUDGET ERROR =             -1.80


  PERCENT DISCREPANCY =             -0.02    PERCENT DISCREPANCY =             -0.00



1
 SUMMARY VOLUMETRIC BUDGET FOR GSFLOW 
 DATE: 05 05 1991              CUMULATIVE TIME STEP:       5
 MODFLOW STRESS PERIOD      9     CURRENT TIME STEP:     217     ITERATIONS:       7

 -----------------------------------------------------------------------------------

   CUMULATIVE VOLUMES               L**3   RATES FOR THIS TIME STEP           L**3/T
   ------------------                      ------------------------

                                     IN                                         IN
                                     --                                         --
        PRECIPITATION =        1.3510D+07          PRECIPITATION =                  
           STREAMFLOW =                               STREAMFLOW =                  
     GW BOUNDARY FLOW =            100.77       GW BOUNDARY FLOW =              1.27


                                    OUT                                        OUT
                                    ---                                        ---
   EVAPOTRANSPIRATION =        4055461.90     EVAPOTRANSPIRATION =          90182.26
           STREAMFLOW =        4446289.95             STREAMFLOW =          83301.08
     GW BOUNDARY FLOW =           7740.21       GW BOUNDARY FLOW =             35.33

   INFLOWS - OUTFLOWS =        5000316.85     INFLOWS - OUTFLOWS =        -173517.40
             --------                                   --------

 TOTAL STORAGE CHANGE =        5003248.00         STORAGE CHANGE =        -173516.69
       --------------                             --------------
         LAND SURFACE =        1002302.70           LAND SURFACE =        -146993.92
            SOIL ZONE =        6321962.51              SOIL ZONE =         -36490.23
     UNSATURATED ZONE =       -2892202.20       UNSATURATED ZONE =          10058.62
       SATURATED ZONE =         571184.99         SATURATED ZONE =            -91.17

 OVERALL BUDGET ERROR =          -2931.15           BUDGET ERROR =             -0.70


  PERCENT DISCREPANCY =             -0.02    PERCENT DISCREPANCY =             -0.00



1
 SUMMARY VOLUMETRIC BUDGET FOR GSFLOW 
 DATE: 05 12 1991              CUMULATIVE TIME STEP:      12
 MODFLOW STRESS PERIOD      9     CURRENT TIME STEP:     224     ITERATIONS:       7

 -----------------------------------------------------------------------------------

   CUMULATIVE VOLUMES               L**3   RATES FOR THIS TIME STEP           L**3/T
   ------------------                      ------------------------

                                     IN                                         IN
                                     --                                         --
        PRECIPITATION =        1.4029D+07          PRECIPITATION =                  
           STREAMFLOW =                               STREAMFLOW =                  
     GW BOUNDARY FLOW =            109.84       GW BOUNDARY FLOW =              1.31


                                    OUT                                        OUT
                                    ---                                        ---
   EVAPOTRANSPIRATION =        4450849.17     EVAPOTRANSPIRATION =          68750.33
           STREAMFLOW =        4983478.16             STREAMFLOW =          85680.90
     GW BOUNDARY FLOW =           7986.26       GW BOUNDARY FLOW =             35.17

   INFLOWS - OUTFLOWS =        4587018.41     INFLOWS - OUTFLOWS =        -154465.09
             --------                                   --------

 TOTAL STORAGE CHANGE =        4589953.14         STORAGE CHANGE =        -154464.58
       --------------                             --------------
         LAND SURFACE =         554756.95           LAND SURFACE =        -204088.73
            SOIL ZONE =        6293545.77              SOIL ZONE =          40880.88
     UNSATURATED ZONE =       -2830588.47       UNSATURATED ZONE =           8721.89
       SATURATED ZONE =         572238.89         SATURATED ZONE =             21.38

 OVERALL BUDGET ERROR =          -2934.73           BUDGET ERROR =             -0.51


  PERCENT DISCREPANCY =             -0.02    PERCENT DISCREPANCY =             -0.00



1
 SUMMARY VOLUMETRIC BUDGET FOR GSFLOW 
 DATE: 05 19 1991              CUMULATIVE TIME STEP:      19
 MODFLOW STRESS PERIOD      9     CURRENT TIME STEP:     231     ITERATIONS:       7

 -----------------------------------------------------------------------------------

   CUMULATIVE VOLUMES               L**3   RATES FOR THIS TIME STEP           L**3/T
   ------------------                      ------------------------

                                     IN                                         IN
                                     --                                         --
        PRECIPITATION =        1.4365D+07          PRECIPITATION =                  
           STREAMFLOW =                               STREAMFLOW =                  
     GW BOUNDARY FLOW =            119.18       GW BOUNDARY FLOW =              1.35


                                    OUT                                        OUT
                                    ---                                        ---
   EVAPOTRANSPIRATION =        4889284.87     EVAPOTRANSPIRATION =          20369.32
           STREAMFLOW =        5431724.67             STREAMFLOW =          55438.67
     GW BOUNDARY FLOW =           8230.02       GW BOUNDARY FLOW =             34.65

   INFLOWS - OUTFLOWS =        4036257.93     INFLOWS - OUTFLOWS =         -75841.28
             --------                                   --------

 TOTAL STORAGE CHANGE =        4039194.21         STORAGE CHANGE =         -75841.54
       --------------                             --------------
         LAND SURFACE =         218155.85           LAND SURFACE =         -22216.95
            SOIL ZONE =        6030362.42              SOIL ZONE =         -59330.40
     UNSATURATED ZONE =       -2782240.44       UNSATURATED ZONE =           5528.52
       SATURATED ZONE =         572916.38         SATURATED ZONE =            177.29

 OVERALL BUDGET ERROR =          -2936.29           BUDGET ERROR =              0.26


  PERCENT DISCREPANCY =             -0.02    PERCENT DISCREPANCY =              0.00



1
 SUMMARY VOLUMETRIC BUDGET FOR GSFLOW 
 DATE: 05 26 1991              CUMULATIVE TIME STEP:      26
 MODFLOW STRESS PERIOD      9     CURRENT TIME STEP:     238     ITERATIONS:       6

 -----------------------------------------------------------------------------------

   CUMULATIVE VOLUMES               L**3   RATES FOR THIS TIME STEP           L**3/T
   ------------------                      ------------------------

                                     IN                                         IN
                                     --                                         --
        PRECIPITATION =        1.4426D+07          PRECIPITATION =                  
           STREAMFLOW =                               STREAMFLOW =                  
     GW BOUNDARY FLOW =            128.79       GW BOUNDARY FLOW =              1.39


                                    OUT                                        OUT
                                    ---                                        ---
   EVAPOTRANSPIRATION =        5573761.10     EVAPOTRANSPIRATION =          76940.71
           STREAMFLOW =        5737160.99             STREAMFLOW =          31264.30
     GW BOUNDARY FLOW =           8470.69       GW BOUNDARY FLOW =             34.13

   INFLOWS - OUTFLOWS =        3107233.62     INFLOWS - OUTFLOWS =        -108237.75
             --------                                   --------

 TOTAL STORAGE CHANGE =        3110169.54         STORAGE CHANGE =        -108236.59
       --------------                             --------------
         LAND SURFACE =          51493.15           LAND SURFACE =          -7682.13
            SOIL ZONE =        5248712.55              SOIL ZONE =         -99900.06
     UNSATURATED ZONE =       -2761363.21       UNSATURATED ZONE =            -35.25
       SATURATED ZONE =         571327.05         SATURATED ZONE =           -619.15

 OVERALL BUDGET ERROR =          -2935.92           BUDGET ERROR =             -1.16


  PERCENT DISCREPANCY =             -0.02    PERCENT DISCREPANCY =             -0.00



1
 SUMMARY VOLUMETRIC BUDGET FOR GSFLOW 
 DATE: 06 02 1991              CUMULATIVE TIME STEP:       2
 MODFLOW STRESS PERIOD     10     CURRENT TIME STEP:     245     ITERATIONS:       6

 -----------------------------------------------------------------------------------

   CUMULATIVE VOLUMES               L**3   RATES FOR THIS TIME STEP           L**3/T
   ------------------                      ------------------------

                                     IN                                         IN
                                     --                                         --
        PRECIPITATION =        1.4671D+07          PRECIPITATION =                  
           STREAMFLOW =                               STREAMFLOW =                  
     GW BOUNDARY FLOW =            138.70       GW BOUNDARY FLOW =              1.43


                                    OUT                                        OUT
                                    ---                                        ---
   EVAPOTRANSPIRATION =        6162572.09     EVAPOTRANSPIRATION =         127630.39
           STREAMFLOW =        5948105.64             STREAMFLOW =          25786.53
     GW BOUNDARY FLOW =           8708.80       GW BOUNDARY FLOW =             33.88

   INFLOWS - OUTFLOWS =        2551726.97     INFLOWS - OUTFLOWS =        -153449.36
             --------                                   --------

 TOTAL STORAGE CHANGE =        2554683.13         STORAGE CHANGE =        -153446.02
       --------------                             --------------
         LAND SURFACE =          18305.18           LAND SURFACE =          -3906.15
            SOIL ZONE =        4746720.12              SOIL ZONE =        -145293.44
     UNSATURATED ZONE =       -2775270.46       UNSATURATED ZONE =          -3117.44
       SATURATED ZONE =         564928.29         SATURATED ZONE =          -1128.99

 OVERALL BUDGET ERROR =          -2956.16           BUDGET ERROR =             -3.34


  PERCENT DISCREPANCY =             -0.02    PERCENT DISCREPANCY =             -0.00



1
 SUMMARY VOLUMETRIC BUDGET FOR GSFLOW 
 DATE: 06 09 1991              CUMULATIVE TIME STEP:       9
 MODFLOW STRESS PERIOD     10     CURRENT TIME STEP:     252     ITERATIONS:       7

 -----------------------------------------------------------------------------------

   CUMULATIVE VOLUMES               L**3   RATES FOR THIS TIME STEP           L**3/T
   ------------------                      ------------------------

                                     IN                                         IN
                                     --                                         --
        PRECIPITATION =        1.4671D+07          PRECIPITATION =                  
           STREAMFLOW =                               STREAMFLOW =                  
     GW BOUNDARY FLOW =            148.89       GW BOUNDARY FLOW =              1.47


                                    OUT                                        OUT
                                    ---                                        ---
   EVAPOTRANSPIRATION =        6951470.57     EVAPOTRANSPIRATION =         172555.02
           STREAMFLOW =        6099452.27             STREAMFLOW =          18777.74
     GW BOUNDARY FLOW =           8944.76       GW BOUNDARY FLOW =             33.59

   INFLOWS - OUTFLOWS =        1611256.10     INFLOWS - OUTFLOWS =        -191364.88
             --------                                   --------

 TOTAL STORAGE CHANGE =        1614253.48         STORAGE CHANGE =        -191358.41
       --------------                             --------------
         LAND SURFACE =           3417.33           LAND SURFACE =          -2018.63
            SOIL ZONE =        3869933.44              SOIL ZONE =        -180586.20
     UNSATURATED ZONE =       -2811591.45       UNSATURATED ZONE =          -6352.09
       SATURATED ZONE =         552494.16         SATURATED ZONE =          -2401.48

 OVERALL BUDGET ERROR =          -2997.38           BUDGET ERROR =             -6.47


  PERCENT DISCREPANCY =             -0.02    PERCENT DISCREPANCY =             -0.00



1
 SUMMARY VOLUMETRIC BUDGET FOR GSFLOW 
 DATE: 06 16 1991              CUMULATIVE TIME STEP:      16
 MODFLOW STRESS PERIOD     10     CURRENT TIME STEP:     259     ITERATIONS:       6

 -----------------------------------------------------------------------------------

   CUMULATIVE VOLUMES               L**3   RATES FOR THIS TIME STEP           L**3/T
   ------------------                      ------------------------

                                     IN                                         IN
                                     --                                         --
        PRECIPITATION =        1.4671D+07          PRECIPITATION =                  
           STREAMFLOW =                               STREAMFLOW =                  
     GW BOUNDARY FLOW =            159.37       GW BOUNDARY FLOW =              1.51


                                    OUT                                        OUT
                                    ---                                        ---
   EVAPOTRANSPIRATION =        7968547.94     EVAPOTRANSPIRATION =         117053.57
           STREAMFLOW =        6217722.34             STREAMFLOW =          16327.41
     GW BOUNDARY FLOW =           9178.99       GW BOUNDARY FLOW =             33.38

   INFLOWS - OUTFLOWS =         475684.91     INFLOWS - OUTFLOWS =        -133412.85
             --------                                   --------

 TOTAL STORAGE CHANGE =         478748.15         STORAGE CHANGE =        -133401.77
       --------------                             --------------
         LAND SURFACE =             89.42           LAND SURFACE =            -43.13
            SOIL ZONE =        2844627.71              SOIL ZONE =        -113376.48
     UNSATURATED ZONE =       -2896680.41       UNSATURATED ZONE =         -16107.86
       SATURATED ZONE =         530711.42         SATURATED ZONE =          -3874.30

 OVERALL BUDGET ERROR =          -3063.24           BUDGET ERROR =            -11.08


  PERCENT DISCREPANCY =             -0.02    PERCENT DISCREPANCY =             -0.01



1
 SUMMARY VOLUMETRIC BUDGET FOR GSFLOW 
 DATE: 06 23 1991              CUMULATIVE TIME STEP:      23
 MODFLOW STRESS PERIOD     10     CURRENT TIME STEP:     266     ITERATIONS:       5

 -----------------------------------------------------------------------------------

   CUMULATIVE VOLUMES               L**3   RATES FOR THIS TIME STEP           L**3/T
   ------------------                      ------------------------

                                     IN                                         IN
                                     --                                         --
        PRECIPITATION =        1.4671D+07          PRECIPITATION =                  
           STREAMFLOW =                               STREAMFLOW =                  
     GW BOUNDARY FLOW =            169.95       GW BOUNDARY FLOW =              1.48


                                    OUT                                        OUT
                                    ---                                        ---
   EVAPOTRANSPIRATION =        8512169.28     EVAPOTRANSPIRATION =          39004.36
           STREAMFLOW =        6328353.43             STREAMFLOW =          15507.56
     GW BOUNDARY FLOW =           9412.01       GW BOUNDARY FLOW =             33.22

   INFLOWS - OUTFLOWS =        -178789.97     INFLOWS - OUTFLOWS =         -54543.66
             --------                                   --------

 TOTAL STORAGE CHANGE =        -175634.29         STORAGE CHANGE =         -54522.07
       --------------                             --------------
         LAND SURFACE =             10.53           LAND SURFACE =             -3.38
            SOIL ZONE =        2337308.14              SOIL ZONE =         -35974.83
     UNSATURATED ZONE =       -3009157.69       UNSATURATED ZONE =         -13135.57
       SATURATED ZONE =         496204.73         SATURATED ZONE =          -5408.28

 OVERALL BUDGET ERROR =          -3155.68           BUDGET ERROR =            -21.59


  PERCENT DISCREPANCY =             -0.02    PERCENT DISCREPANCY =             -0.04



1
 SUMMARY VOLUMETRIC BUDGET FOR GSFLOW 
 DATE: 06 30 1991              CUMULATIVE TIME STEP:      30
 MODFLOW STRESS PERIOD     10     CURRENT TIME STEP:     273     ITERATIONS:       5

 -----------------------------------------------------------------------------------

   CUMULATIVE VOLUMES               L**3   RATES FOR THIS TIME STEP           L**3/T
   ------------------                      ------------------------

                                     IN                                         IN
[...]
   ------------------                      ------------------------

                                     IN                                         IN
                                     --                                         --
        PRECIPITATION =        2.4013D+08          PRECIPITATION =                  
           STREAMFLOW =                               STREAMFLOW =                  
     GW BOUNDARY FLOW =          14852.53       GW BOUNDARY FLOW =              6.14


                                    OUT                                        OUT
                                    ---                                        ---
   EVAPOTRANSPIRATION =        1.4362D+08     EVAPOTRANSPIRATION =          27627.04
           STREAMFLOW =        1.2066D+08             STREAMFLOW =           6546.21
     GW BOUNDARY FLOW =          95672.78       GW BOUNDARY FLOW =             22.28

   INFLOWS - OUTFLOWS =       -2.4237D+07     INFLOWS - OUTFLOWS =         -34189.39
             --------                                   --------

 TOTAL STORAGE CHANGE =       -2.4222D+07         STORAGE CHANGE =         -34189.92
       --------------                             --------------
         LAND SURFACE =          31152.71           LAND SURFACE =         -27523.93
            SOIL ZONE =        -192997.21              SOIL ZONE =            -58.10
     UNSATURATED ZONE =         452748.89       UNSATURATED ZONE =          -1631.11
       SATURATED ZONE =       -2.4513D+07         SATURATED ZONE =          -4976.78

 OVERALL BUDGET ERROR =         -15067.57           BUDGET ERROR =              0.53


  PERCENT DISCREPANCY =             -0.01    PERCENT DISCREPANCY =              0.00



1
 SUMMARY VOLUMETRIC BUDGET FOR GSFLOW 
 DATE: 09 10 2000              CUMULATIVE TIME STEP:      10
 MODFLOW STRESS PERIOD    121     CURRENT TIME STEP:    3633     ITERATIONS:      13

 -----------------------------------------------------------------------------------

   CUMULATIVE VOLUMES               L**3   RATES FOR THIS TIME STEP           L**3/T
   ------------------                      ------------------------

                                     IN                                         IN
                                     --                                         --
        PRECIPITATION =        2.4013D+08          PRECIPITATION =                  
           STREAMFLOW =                               STREAMFLOW =                  
     GW BOUNDARY FLOW =          14895.52       GW BOUNDARY FLOW =              6.14


                                    OUT                                        OUT
                                    ---                                        ---
   EVAPOTRANSPIRATION =        1.4371D+08     EVAPOTRANSPIRATION =           8651.07
           STREAMFLOW =        1.2070D+08             STREAMFLOW =           4373.24
     GW BOUNDARY FLOW =          95827.33       GW BOUNDARY FLOW =             22.05

   INFLOWS - OUTFLOWS =       -2.4357D+07     INFLOWS - OUTFLOWS =         -13040.22
             --------                                   --------

 TOTAL STORAGE CHANGE =       -2.4341D+07         STORAGE CHANGE =         -13039.51
       --------------                             --------------
         LAND SURFACE =                             LAND SURFACE =                  
            SOIL ZONE =        -209835.04              SOIL ZONE =          -2514.24
     UNSATURATED ZONE =         441151.31       UNSATURATED ZONE =          -1631.40
       SATURATED ZONE =       -2.4573D+07         SATURATED ZONE =          -8893.88

 OVERALL BUDGET ERROR =         -15077.49           BUDGET ERROR =             -0.71


  PERCENT DISCREPANCY =             -0.01    PERCENT DISCREPANCY =             -0.01



1
 SUMMARY VOLUMETRIC BUDGET FOR GSFLOW 
 DATE: 09 17 2000              CUMULATIVE TIME STEP:      17
 MODFLOW STRESS PERIOD    121     CURRENT TIME STEP:    3640     ITERATIONS:       7

 -----------------------------------------------------------------------------------

   CUMULATIVE VOLUMES               L**3   RATES FOR THIS TIME STEP           L**3/T
   ------------------                      ------------------------

                                     IN                                         IN
                                     --                                         --
        PRECIPITATION =        2.4013D+08          PRECIPITATION =                  
           STREAMFLOW =                               STREAMFLOW =                  
     GW BOUNDARY FLOW =          14938.56       GW BOUNDARY FLOW =              6.15


                                    OUT                                        OUT
                                    ---                                        ---
   EVAPOTRANSPIRATION =        1.4378D+08     EVAPOTRANSPIRATION =           9940.24
           STREAMFLOW =        1.2072D+08             STREAMFLOW =           4162.80
     GW BOUNDARY FLOW =          95981.27       GW BOUNDARY FLOW =             22.00

   INFLOWS - OUTFLOWS =       -2.4459D+07     INFLOWS - OUTFLOWS =         -14118.90
             --------                                   --------

 TOTAL STORAGE CHANGE =       -2.4444D+07         STORAGE CHANGE =         -14117.53
       --------------                             --------------
         LAND SURFACE =                             LAND SURFACE =                  
            SOIL ZONE =        -229950.44              SOIL ZONE =          -2521.45
     UNSATURATED ZONE =         429644.28       UNSATURATED ZONE =          -1630.77
       SATURATED ZONE =       -2.4644D+07         SATURATED ZONE =          -9965.31

 OVERALL BUDGET ERROR =         -15080.06           BUDGET ERROR =             -1.36


  PERCENT DISCREPANCY =             -0.01    PERCENT DISCREPANCY =             -0.01



1
 SUMMARY VOLUMETRIC BUDGET FOR GSFLOW 
 DATE: 09 24 2000              CUMULATIVE TIME STEP:      24
 MODFLOW STRESS PERIOD    121     CURRENT TIME STEP:    3647     ITERATIONS:       5

 -----------------------------------------------------------------------------------

   CUMULATIVE VOLUMES               L**3   RATES FOR THIS TIME STEP           L**3/T
   ------------------                      ------------------------

                                     IN                                         IN
                                     --                                         --
        PRECIPITATION =        2.4013D+08          PRECIPITATION =                  
           STREAMFLOW =                               STREAMFLOW =                  
     GW BOUNDARY FLOW =          14981.65       GW BOUNDARY FLOW =              6.16


                                    OUT                                        OUT
                                    ---                                        ---
   EVAPOTRANSPIRATION =        1.4384D+08     EVAPOTRANSPIRATION =           5137.60
           STREAMFLOW =        1.2076D+08             STREAMFLOW =           5331.80
     GW BOUNDARY FLOW =          96135.61       GW BOUNDARY FLOW =             22.13

   INFLOWS - OUTFLOWS =       -2.4546D+07     INFLOWS - OUTFLOWS =         -10485.37
             --------                                   --------

 TOTAL STORAGE CHANGE =       -2.4531D+07         STORAGE CHANGE =         -10481.17
       --------------                             --------------
         LAND SURFACE =                             LAND SURFACE =                  
            SOIL ZONE =        -242875.16              SOIL ZONE =          -1118.40
     UNSATURATED ZONE =         418601.20       UNSATURATED ZONE =          -1519.97
       SATURATED ZONE =       -2.4707D+07         SATURATED ZONE =          -7842.80

 OVERALL BUDGET ERROR =         -15101.91           BUDGET ERROR =             -4.20


  PERCENT DISCREPANCY =             -0.01    PERCENT DISCREPANCY =             -0.04



1
 SUMMARY VOLUMETRIC BUDGET FOR GSFLOW 
 DATE: 10 01 2000              CUMULATIVE TIME STEP:       1
 MODFLOW STRESS PERIOD    122     CURRENT TIME STEP:    3654     ITERATIONS:       7

 -----------------------------------------------------------------------------------

   CUMULATIVE VOLUMES               L**3   RATES FOR THIS TIME STEP           L**3/T
   ------------------                      ------------------------

                                     IN                                         IN
                                     --                                         --
        PRECIPITATION =        2.4013D+08          PRECIPITATION =                  
           STREAMFLOW =                               STREAMFLOW =                  
     GW BOUNDARY FLOW =          15024.78       GW BOUNDARY FLOW =              6.16


                                    OUT                                        OUT
                                    ---                                        ---
   EVAPOTRANSPIRATION =        1.4390D+08     EVAPOTRANSPIRATION =           8309.58
           STREAMFLOW =        1.2079D+08             STREAMFLOW =           4420.59
     GW BOUNDARY FLOW =          96289.84       GW BOUNDARY FLOW =             22.03

   INFLOWS - OUTFLOWS =       -2.4637D+07     INFLOWS - OUTFLOWS =         -12746.04
             --------                                   --------

 TOTAL STORAGE CHANGE =       -2.4622D+07         STORAGE CHANGE =         -12746.35
       --------------                             --------------
         LAND SURFACE =                             LAND SURFACE =                  
            SOIL ZONE =        -255313.55              SOIL ZONE =          -1636.24
     UNSATURATED ZONE =         407584.87       UNSATURATED ZONE =          -1574.23
       SATURATED ZONE =       -2.4774D+07         SATURATED ZONE =          -9535.88

 OVERALL BUDGET ERROR =         -15105.31           BUDGET ERROR =              0.30


  PERCENT DISCREPANCY =             -0.01    PERCENT DISCREPANCY =              0.00



1
 SUMMARY VOLUMETRIC BUDGET FOR GSFLOW 
 DATE: 10 08 2000              CUMULATIVE TIME STEP:       8
 MODFLOW STRESS PERIOD    122     CURRENT TIME STEP:    3661     ITERATIONS:       3

 -----------------------------------------------------------------------------------

   CUMULATIVE VOLUMES               L**3   RATES FOR THIS TIME STEP           L**3/T
   ------------------                      ------------------------

                                     IN                                         IN
                                     --                                         --
        PRECIPITATION =        2.4013D+08          PRECIPITATION =                  
           STREAMFLOW =                               STREAMFLOW =                  
     GW BOUNDARY FLOW =          15067.96       GW BOUNDARY FLOW =              6.17


                                    OUT                                        OUT
                                    ---                                        ---
   EVAPOTRANSPIRATION =        1.4395D+08     EVAPOTRANSPIRATION =           6959.45
           STREAMFLOW =        1.2082D+08             STREAMFLOW =           4819.97
     GW BOUNDARY FLOW =          96444.27       GW BOUNDARY FLOW =             22.07

   INFLOWS - OUTFLOWS =       -2.4721D+07     INFLOWS - OUTFLOWS =         -11795.31
             --------                                   --------

 TOTAL STORAGE CHANGE =       -2.4706D+07         STORAGE CHANGE =         -11731.53
       --------------                             --------------
         LAND SURFACE =                             LAND SURFACE =                  
            SOIL ZONE =        -264640.17              SOIL ZONE =          -1219.83
     UNSATURATED ZONE =         396745.89       UNSATURATED ZONE =          -1553.32
       SATURATED ZONE =       -2.4838D+07         SATURATED ZONE =          -8958.38

 OVERALL BUDGET ERROR =         -15170.52           BUDGET ERROR =            -63.78


  PERCENT DISCREPANCY =             -0.01    PERCENT DISCREPANCY =             -0.54



1
 SUMMARY VOLUMETRIC BUDGET FOR GSFLOW 
 DATE: 10 15 2000              CUMULATIVE TIME STEP:      15
 MODFLOW STRESS PERIOD    122     CURRENT TIME STEP:    3668     ITERATIONS:       7

 -----------------------------------------------------------------------------------

   CUMULATIVE VOLUMES               L**3   RATES FOR THIS TIME STEP           L**3/T
   ------------------                      ------------------------

                                     IN                                         IN
                                     --                                         --
        PRECIPITATION =        2.4034D+08          PRECIPITATION =                  
           STREAMFLOW =                               STREAMFLOW =                  
     GW BOUNDARY FLOW =          15111.17       GW BOUNDARY FLOW =              6.18


                                    OUT                                        OUT
                                    ---                                        ---
   EVAPOTRANSPIRATION =        1.4402D+08     EVAPOTRANSPIRATION =           8048.87
           STREAMFLOW =        1.2087D+08             STREAMFLOW =           6107.24
     GW BOUNDARY FLOW =          96600.17       GW BOUNDARY FLOW =             22.23

   INFLOWS - OUTFLOWS =       -2.4631D+07     INFLOWS - OUTFLOWS =         -14172.17
             --------                                   --------

 TOTAL STORAGE CHANGE =       -2.4616D+07         STORAGE CHANGE =         -14171.60
       --------------                             --------------
         LAND SURFACE =            289.77           LAND SURFACE =          -3209.51
            SOIL ZONE =        -122045.47              SOIL ZONE =          -2065.72
     UNSATURATED ZONE =         385997.92       UNSATURATED ZONE =          -1630.61
       SATURATED ZONE =       -2.4880D+07         SATURATED ZONE =          -7265.76

 OVERALL BUDGET ERROR =         -15197.49           BUDGET ERROR =             -0.56


  PERCENT DISCREPANCY =             -0.01    PERCENT DISCREPANCY =             -0.00



1
 SUMMARY VOLUMETRIC BUDGET FOR GSFLOW 
 DATE: 10 22 2000              CUMULATIVE TIME STEP:      22
 MODFLOW STRESS PERIOD    122     CURRENT TIME STEP:    3675     ITERATIONS:       5

 -----------------------------------------------------------------------------------

   CUMULATIVE VOLUMES               L**3   RATES FOR THIS TIME STEP           L**3/T
   ------------------                      ------------------------

                                     IN                                         IN
                                     --                                         --
        PRECIPITATION =        2.4039D+08          PRECIPITATION =                  
           STREAMFLOW =                               STREAMFLOW =                  
     GW BOUNDARY FLOW =          15154.42       GW BOUNDARY FLOW =              6.18


                                    OUT                                        OUT
                                    ---                                        ---
   EVAPOTRANSPIRATION =        1.4407D+08     EVAPOTRANSPIRATION =           8033.28
           STREAMFLOW =        1.2091D+08             STREAMFLOW =           7139.79
     GW BOUNDARY FLOW =          96755.95       GW BOUNDARY FLOW =             22.36

   INFLOWS - OUTFLOWS =       -2.4673D+07     INFLOWS - OUTFLOWS =         -15189.25
             --------                                   --------

 TOTAL STORAGE CHANGE =       -2.4658D+07         STORAGE CHANGE =         -15184.68
       --------------                             --------------
         LAND SURFACE =          27624.54           LAND SURFACE =          -7992.89
            SOIL ZONE =        -130200.15              SOIL ZONE =             10.94
     UNSATURATED ZONE =         374953.97       UNSATURATED ZONE =          -1483.69
       SATURATED ZONE =       -2.4930D+07         SATURATED ZONE =          -5719.03

 OVERALL BUDGET ERROR =         -15225.01           BUDGET ERROR =             -4.57


  PERCENT DISCREPANCY =             -0.01    PERCENT DISCREPANCY =             -0.03



1
 SUMMARY VOLUMETRIC BUDGET FOR GSFLOW 
 DATE: 10 29 2000              CUMULATIVE TIME STEP:      29
 MODFLOW STRESS PERIOD    122     CURRENT TIME STEP:    3682     ITERATIONS:      23

 -----------------------------------------------------------------------------------

   CUMULATIVE VOLUMES               L**3   RATES FOR THIS TIME STEP           L**3/T
   ------------------                      ------------------------

                                     IN                                         IN
                                     --                                         --
        PRECIPITATION =        2.4111D+08          PRECIPITATION =          24578.20
           STREAMFLOW =                               STREAMFLOW =                  
     GW BOUNDARY FLOW =          15197.70       GW BOUNDARY FLOW =              6.18


                                    OUT                                        OUT
                                    ---                                        ---
   EVAPOTRANSPIRATION =        1.4411D+08     EVAPOTRANSPIRATION =           1117.66
           STREAMFLOW =        1.2096D+08             STREAMFLOW =           7048.14
     GW BOUNDARY FLOW =          96912.38       GW BOUNDARY FLOW =             22.38

   INFLOWS - OUTFLOWS =       -2.4035D+07     INFLOWS - OUTFLOWS =          16396.21
             --------                                   --------

 TOTAL STORAGE CHANGE =       -2.4020D+07         STORAGE CHANGE =          16396.14
       --------------                             --------------
         LAND SURFACE =         587219.82           LAND SURFACE =          11658.99
            SOIL ZONE =           2341.97              SOIL ZONE =          12322.57
     UNSATURATED ZONE =         364045.09       UNSATURATED ZONE =          -1571.01
       SATURATED ZONE =       -2.4973D+07         SATURATED ZONE =          -6014.41

 OVERALL BUDGET ERROR =         -15243.23           BUDGET ERROR =              0.07


  PERCENT DISCREPANCY =             -0.01    PERCENT DISCREPANCY =              0.00



 Number of time steps:   3684;  Number of non-convergence:   0
 MF iterations:         23885;  SZ iterations:           23240
 Average MF iterations:  6.48;  Average SZ iterations:    6.31
 Maximum MF iterations:   259;  Maximum SZ iterations:      50

mxsziter reached: 9

MF iteration distribution:      0    0   89  401  628 1200  844  295  149   26
                                7    2   10    5    4    2    0    4    0    0
                                0    1    4    1    0    0    0    0    1    0
                                0    0    0    0    0    1    0    0    0    0
                                0    1    0    0    0    0    0    0    0    0
                                0    0    0    0    0    0    0    1    1    0
                                0    0    0    0    0    0    0    0    1    1
                                0    0    0    0    0    0    0    1    0    4

SZ computation distribution:    0    0   89  401  628 1200  844  295  149   26
                                7    2   10    5    4    2    0    4    0    0
                                0    1    4    1    0    0    0    0    1    0
                                0    0    0    0    0    1    0    0    0    0
                                0    1    0    0    0    0    0    0    0    9
                                0    0    0    0    0    0    0    0    0    0
                                0    0    0    0    0    0    0    0    0    0
                                0    0    0    0    0    0    0    0    0    0

