==========================================================================
Command line: 
..\..\bin\gsflow  .\control\control

number of command line words: 2

Executable: ..\..\bin\gsflow

==========================================================================
Control File: .\control\control
==========================================================================

                          U.S. Geological Survey
        Coupled Groundwater and Surface-water FLOW model (GSFLOW)
                         Version: 2.4.0 03/01/2025

    An integration of the Precipitation-Runoff Modeling System (PRMS)
    and the Modular Groundwater Model (MODFLOW-NWT and MODFLOW-2005)



               Precipitation-Runoff Modeling System (PRMS)
                       Version 6.0.0 02/01/2025

--------------------------------------------------------------------
        Process            Available Modules
--------------------------------------------------------------------
  Basin Definition: basin
    Cascading Flow: cascade
  Time Series Data: obs, water_use_read, dynamic_param_read
                    dynamic_soil_param_read
   Potet Solar Rad: soltab
  Temperature Dist: temp_1sta, temp_laps, temp_dist2, climate_hru,
                    temp_map
       Precip Dist: precip_1sta, precip_laps, precip_dist2,
                    climate_hru, precip_map
Temp & Precip Dist: xyz_dist, ide_dist
    Solar Rad Dist: ccsolrad, ddsolrad, climate_hru
Transpiration Dist: transp_tindex, climate_hru, transp_frost
      Potential ET: potet_hamon, potet_jh, potet_pan, climate_hru,
                    potet_hs, potet_pt, potet_pm, potet_pm_sta
      Interception: intcp
Snow & Glacr Dynam: snowcomp, glacr_melt
    Surface Runoff: srunoff_smidx, srunoff_carea
         Soil Zone: soilzone, soilzone_ag
       Groundwater: gwflow
Streamflow Routing: strmflow, strmflow_in_out, muskingum,
                    muskingum_lake, muskingum_mann, segment_to_hru
Streamflow Charact: strmflow_character
Stream Temperature: stream_temp
    Output Summary: basin_sum, subbasin, map_results, prms_summary,
                    nhru_summary, nsub_summary, water_balance
                    basin_summary, nsegment_summary, statvar_out
     Preprocessing: write_climate_hru, frost_date
--------------------------------------------------------------------

Github Commit Hash 25f61fe10733e5ba1ddac095e8546342764675cf

Execution start date and time (yyyy/mm/dd hh:mm:ss) 2025/02/28 11:59:37


==========================================================================
Please give careful consideration to fixing all ERROR and WARNING messages
==========================================================================


--------------------------------------------------------------------
    Active modules listed in the order in which they are called
--------------------------------------------------------------------
        Process                    Module         Version Date
==============================================================
PRMS Computation Order          gsflow_prms         2025-02-01
Read Control File               read_control_file   2025-01-16
Read Parameter File             read_parameter_file 2024-11-25
Read Data File                  read_data_file      2023-06-02
Basin Definition                basin               2025-02-26
Common States and Fluxes        climateflow         2025-01-16
Potential Solar Radiation       soltab              2025-02-21
Time Series Data                obs                 2023-11-01
Timestep Control                prms_time           2023-11-01
Time Series Data                water_use_read      2023-11-01
Temperature Distribution        climate_hru         2025-02-25
Precipitation Distribution      climate_hru         2025-02-25
Solar Radiation Distribution    climate_hru         2025-02-25
Potential Evapotranspiration    climate_hru         2025-02-25
Transpiration Distribution      transp_tindex       2023-11-01
Canopy Interception             intcp               2024-04-04
Snow Dynamics                   snowcomp            2025-02-18
Surface Runoff                  srunoff_smidx       2024-10-09
Soilzone Computations           soilzone            2025-02-27
Groundwater                     gwflow              2024-12-01
Streamflow Routing Init         routing             2025-02-19
Streamflow Routing              muskingum           2025-02-11
Output Summary                  basin_sum           2024-12-01
Output Summary                  nhru_summary        2024-09-01
Statistics Variables Output     statvar_out         2021-09-08
Output Summary                  prms_summary        2025-02-10
WARNING, parameter: poi_type is ignored as it is not used
WARNING, parameter: basin_area is ignored as it is not used
==============================================================

Using Control File: .\control\control

Using Parameter File: ./input/params

Writing PRMS Water Budget File: ./output/model.out

 WARNING, pref_flow_infil_frac not specified, substituting pref_flow_den
  
 WARNING, parameter: irr_type is not specified
          Set to default value:           0
 WARNING, parameter: pref_flow_infil_frac is not specified
          Set to default value:  -1.000000    

Simulation time period: 1980/01/01 - 1999/12/31

==========================================================================


                          ===========================
                          Normal completion of GSFLOW
                          ===========================


Execution start date and time (yyyy/mm/dd hh:mm:ss) 2025/02/28 11:59:37


Execution end   date and time (yyyy/mm/dd hh:mm:ss) 2025/02/28 11:59:38

Execution elapsed time    0 minutes  1.10 seconds

