

                          U.S. Geological Survey
        Coupled Groundwater and Surface-water FLOW model (GSFLOW)
                         Version 2.0.0 04/05/2019

    An integration of the Precipitation-Runoff Modeling System (PRMS)
    and the Modular Groundwater Model (MODFLOW-NWT and MODFLOW-2005)


                            MODFLOW-NWT-SWR1 
  U.S. GEOLOGICAL SURVEY MODULAR FINITE-DIFFERENCE GROUNDWATER-FLOW MODEL
                         WITH NEWTON FORMULATION
                         Version 1.1.4 4/01/2018
              BASED ON MODFLOW-2005 Version 1.12.0 02/03/2017
                      SWR1 Version 1.04.0 09/15/2016

 Run start date and time (yyyy/mm/dd hh:mm:ss): 2019/04/11 11:28:51

GSFLOW MODFLOW main            gsflow_modflow             2019-03-01
====================================================================
MODFLOW Packages
====================================================================
UZF-NWT Package                gwf2uzf1_NWT               2017-03-08
SFR-NWT Package                gwf2sfr7_NWT               2017-03-08
====================================================================

Using NAME file: ../input/modflow/sagehen.mf.nam

Using Solver Package: PCG 
 Solving:  Stress period:     1    Time step:     1    Groundwater-Flow Eqn.

Steady state simulation successful, used 351 iterations

 Solving:  Stress period:     2    Time step:     1    Groundwater-Flow Eqn.

 Run end date and time (yyyy/mm/dd hh:mm:ss): 2019/04/11 11:28:53
 Elapsed run time:  2.066 Seconds

Normal termination of simulation
