==========================================================================
Command line: 
..\..\..\bin\gsflow  .\modflow.control

number of command line words: 2

Executable: ..\..\..\bin\gsflow

==========================================================================
Control File: .\modflow.control
==========================================================================

                          U.S. Geological Survey
        Coupled Groundwater and Surface-water FLOW model (GSFLOW)
                         Version: 2.4.0 09/01/2024

    An integration of the Precipitation-Runoff Modeling System (PRMS)
    and the Modular Groundwater Model (MODFLOW-NWT and MODFLOW-2005)


                            MODFLOW-NWT-SWR1 
  U.S. GEOLOGICAL SURVEY MODULAR FINITE-DIFFERENCE GROUNDWATER-FLOW MODEL
                         WITH NEWTON FORMULATION
                         Version 1.3.0 06/01/2022
              BASED ON MODFLOW-2005 Version 1.12.0 02/03/2017
                      SWR1 Version 1.04.0 09/15/2016

 Run start date and time (yyyy/mm/dd hh:mm:ss): 2024/11/12 13:29:42

GSFLOW MODFLOW main             gsflow_modflow      2024-06-01
==============================================================
MODFLOW Packages
==============================================================
UZF-NWT Package                 gwf2uzf1_NWT        2022-10-18
SFR-NWT Package                 gwf2sfr7_NWT        2022-10-18
==============================================================

==========================================================================

Using NAME file: ..\input\modflow\sagehen.mf.nam

Using Solver Package: PCG 

modflow_time_zero: 1980/10/01
  
 Solving:  Stress period:     1    Time step:     1    Groundwater-Flow Eqn.

Steady state simulation successful, used 351 iterations
  
 Solving:  Stress period:     2    Time step:     1    Groundwater-Flow Eqn.

 Run end date and time (yyyy/mm/dd hh:mm:ss): 2024/11/12 13:29:44
 Elapsed run time: 1.763 Seconds

 Normal termination of simulation

