

                          U.S. Geological Survey
        Coupled Groundwater and Surface-water FLOW model (GSFLOW)
                         Version 2.0.0 04/05/2019

    An integration of the Precipitation-Runoff Modeling System (PRMS)
    and the Modular Groundwater Model (MODFLOW-NWT and MODFLOW-2005)


                            MODFLOW-NWT-SWR1 
  U.S. GEOLOGICAL SURVEY MODULAR FINITE-DIFFERENCE GROUNDWATER-FLOW MODEL
                         WITH NEWTON FORMULATION
                         Version 1.1.4 4/01/2018
              BASED ON MODFLOW-2005 Version 1.12.0 02/03/2017
                      SWR1 Version 1.04.0 09/15/2016

 Run start date and time (yyyy/mm/dd hh:mm:ss): 2019/04/11 12:44:42

GSFLOW MODFLOW main            gsflow_modflow             2019-03-01
====================================================================
MODFLOW Packages
====================================================================
UZF-NWT Package                gwf2uzf1_NWT               2017-03-08
SFR-NWT Package                gwf2sfr7_NWT               2017-03-08
====================================================================

Using NAME file: ../input/modflow/sagehen_modflow.nam

Using Solver Package: NWT 
 Solving:  Stress period:     1    Time step:     1    Groundwater-Flow Eqn.

Steady state simulation successful, used 70 iterations

 Solving:  Stress period:     2    Time step:     1    Groundwater-Flow Eqn.
 Solving:  Stress period:     2    Time step:     2    Groundwater-Flow Eqn.
 Solving:  Stress period:     2    Time step:     3    Groundwater-Flow Eqn.
 Solving:  Stress period:     2    Time step:     4    Groundwater-Flow Eqn.
 Solving:  Stress period:     2    Time step:     5    Groundwater-Flow Eqn.
 Solving:  Stress period:     2    Time step:     6    Groundwater-Flow Eqn.
 Solving:  Stress period:     2    Time step:     7    Groundwater-Flow Eqn.
 Solving:  Stress period:     2    Time step:     8    Groundwater-Flow Eqn.
 Solving:  Stress period:     2    Time step:     9    Groundwater-Flow Eqn.
 Solving:  Stress period:     2    Time step:    10    Groundwater-Flow Eqn.
 Solving:  Stress period:     2    Time step:    11    Groundwater-Flow Eqn.
 Solving:  Stress period:     2    Time step:    12    Groundwater-Flow Eqn.
 Solving:  Stress period:     2    Time step:    13    Groundwater-Flow Eqn.
 Solving:  Stress period:     2    Time step:    14    Groundwater-Flow Eqn.
 Solving:  Stress period:     2    Time step:    15    Groundwater-Flow Eqn.
 Solving:  Stress period:     2    Time step:    16    Groundwater-Flow Eqn.
 Solving:  Stress period:     2    Time step:    17    Groundwater-Flow Eqn.
 Solving:  Stress period:     2    Time step:    18    Groundwater-Flow Eqn.
 Solving:  Stress period:     2    Time step:    19    Groundwater-Flow Eqn.
 Solving:  Stress period:     2    Time step:    20    Groundwater-Flow Eqn.
 Solving:  Stress period:     2    Time step:    21    Groundwater-Flow Eqn.
 Solving:  Stress period:     2    Time step:    22    Groundwater-Flow Eqn.
 Solving:  Stress period:     2    Time step:    23    Groundwater-Flow Eqn.
 Solving:  Stress period:     2    Time step:    24    Groundwater-Flow Eqn.
 Solving:  Stress period:     2    Time step:    25    Groundwater-Flow Eqn.
 Solving:  Stress period:     2    Time step:    26    Groundwater-Flow Eqn.
 Solving:  Stress period:     2    Time step:    27    Groundwater-Flow Eqn.
 Solving:  Stress period:     2    Time step:    28    Groundwater-Flow Eqn.
 Solving:  Stress period:     2    Time step:    29    Groundwater-Flow Eqn.
 Solving:  Stress period:     2    Time step:    30    Groundwater-Flow Eqn.
 Solving:  Stress period:     2    Time step:    31    Groundwater-Flow Eqn.
 Solving:  Stress period:     2    Time step:    32    Groundwater-Flow Eqn.
 Solving:  Stress period:     2    Time step:    33    Groundwater-Flow Eqn.
 Solving:  Stress period:     2    Time step:    34    Groundwater-Flow Eqn.
 Solving:  Stress period:     2    Time step:    35    Groundwater-Flow Eqn.
 Solving:  Stress period:     2    Time step:    36    Groundwater-Flow Eqn.
 Solving:  Stress period:     2    Time step:    37    Groundwater-Flow Eqn.
 Solving:  Stress period:     2    Time step:    38    Groundwater-Flow Eqn.
 Solving:  Stress period:     2    Time step:    39    Groundwater-Flow Eqn.
 Solving:  Stress period:     2    Time step:    40    Groundwater-Flow Eqn.
 Solving:  Stress period:     2    Time step:    41    Groundwater-Flow Eqn.
 Solving:  Stress period:     2    Time step:    42    Groundwater-Flow Eqn.
 Solving:  Stress period:     2    Time step:    43    Groundwater-Flow Eqn.
 Solving:  Stress period:     2    Time step:    44    Groundwater-Flow Eqn.
 Solving:  Stress period:     2    Time step:    45    Groundwater-Flow Eqn.
 Solving:  Stress period:     2    Time step:    46    Groundwater-Flow Eqn.
 Solving:  Stress period:     2    Time step:    47    Groundwater-Flow Eqn.
 Solving:  Stress period:     2    Time step:    48    Groundwater-Flow Eqn.
 Solving:  Stress period:     2    Time step:    49    Groundwater-Flow Eqn.
 Solving:  Stress period:     2    Time step:    50    Groundwater-Flow Eqn.
 Solving:  Stress period:     2    Time step:    51    Groundwater-Flow Eqn.
 Solving:  Stress period:     2    Time step:    52    Groundwater-Flow Eqn.
 Solving:  Stress period:     2    Time step:    53    Groundwater-Flow Eqn.
 Solving:  Stress period:     2    Time step:    54    Groundwater-Flow Eqn.
 Solving:  Stress period:     2    Time step:    55    Groundwater-Flow Eqn.
 Solving:  Stress period:     2    Time step:    56    Groundwater-Flow Eqn.
 Solving:  Stress period:     2    Time step:    57    Groundwater-Flow Eqn.
 Solving:  Stress period:     2    Time step:    58    Groundwater-Flow Eqn.
 Solving:  Stress period:     2    Time step:    59    Groundwater-Flow Eqn.
 Solving:  Stress period:     2    Time step:    60    Groundwater-Flow Eqn.
 Solving:  Stress period:     2    Time step:    61    Groundwater-Flow Eqn.
 Solving:  Stress period:     2    Time step:    62    Groundwater-Flow Eqn.
 Solving:  Stress period:     2    Time step:    63    Groundwater-Flow Eqn.
 Solving:  Stress period:     2    Time step:    64    Groundwater-Flow Eqn.
 Solving:  Stress period:     2    Time step:    65    Groundwater-Flow Eqn.
 Solving:  Stress period:     2    Time step:    66    Groundwater-Flow Eqn.
 Solving:  Stress period:     2    Time step:    67    Groundwater-Flow Eqn.
 Solving:  Stress period:     2    Time step:    68    Groundwater-Flow Eqn.
 Solving:  Stress period:     2    Time step:    69    Groundwater-Flow Eqn.
 Solving:  Stress period:     2    Time step:    70    Groundwater-Flow Eqn.
 Solving:  Stress period:     2    Time step:    71    Groundwater-Flow Eqn.
 Solving:  Stress period:     2    Time step:    72    Groundwater-Flow Eqn.
 Solving:  Stress period:     2    Time step:    73    Groundwater-Flow Eqn.
 Solving:  Stress period:     2    Time step:    74    Groundwater-Flow Eqn.
 Solving:  Stress period:     2    Time step:    75    Groundwater-Flow Eqn.
 Solving:  Stress period:     2    Time step:    76    Groundwater-Flow Eqn.
 Solving:  Stress period:     2    Time step:    77    Groundwater-Flow Eqn.
 Solving:  Stress period:     2    Time step:    78    Groundwater-Flow Eqn.
 Solving:  Stress period:     2    Time step:    79    Groundwater-Flow Eqn.
 Solving:  Stress period:     2    Time step:    80    Groundwater-Flow Eqn.
 Solving:  Stress period:     2    Time step:    81    Groundwater-Flow Eqn.
 Solving:  Stress period:     2    Time step:    82    Groundwater-Flow Eqn.
 Solving:  Stress period:     2    Time step:    83    Groundwater-Flow Eqn.
 Solving:  Stress period:     2    Time step:    84    Groundwater-Flow Eqn.
 Solving:  Stress period:     2    Time step:    85    Groundwater-Flow Eqn.
 Solving:  Stress period:     2    Time step:    86    Groundwater-Flow Eqn.
 Solving:  Stress period:     2    Time step:    87    Groundwater-Flow Eqn.
 Solving:  Stress period:     2    Time step:    88    Groundwater-Flow Eqn.
 Solving:  Stress period:     2    Time step:    89    Groundwater-Flow Eqn.
 Solving:  Stress period:     2    Time step:    90    Groundwater-Flow Eqn.
 Solving:  Stress period:     2    Time step:    91    Groundwater-Flow Eqn.
 Solving:  Stress period:     2    Time step:    92    Groundwater-Flow Eqn.
 Solving:  Stress period:     2    Time step:    93    Groundwater-Flow Eqn.
 Solving:  Stress period:     2    Time step:    94    Groundwater-Flow Eqn.
 Solving:  Stress period:     2    Time step:    95    Groundwater-Flow Eqn.
 Solving:  Stress period:     2    Time step:    96    Groundwater-Flow Eqn.
 Solving:  Stress period:     2    Time step:    97    Groundwater-Flow Eqn.
 Solving:  Stress period:     2    Time step:    98    Groundwater-Flow Eqn.
 Solving:  Stress period:     2    Time step:    99    Groundwater-Flow Eqn.
 Solving:  Stress period:     2    Time step:   100    Groundwater-Flow Eqn.
 Solving:  Stress period:     2    Time step:   101    Groundwater-Flow Eqn.
 Solving:  Stress period:     2    Time step:   102    Groundwater-Flow Eqn.
 Solving:  Stress period:     2    Time step:   103    Groundwater-Flow Eqn.
 Solving:  Stress period:     2    Time step:   104    Groundwater-Flow Eqn.
 Solving:  Stress period:     2    Time step:   105    Groundwater-Flow Eqn.
 Solving:  Stress period:     2    Time step:   106    Groundwater-Flow Eqn.
 Solving:  Stress period:     2    Time step:   107    Groundwater-Flow Eqn.
 Solving:  Stress period:     2    Time step:   108    Groundwater-Flow Eqn.
 Solving:  Stress period:     2    Time step:   109    Groundwater-Flow Eqn.
 Solving:  Stress period:     2    Time step:   110    Groundwater-Flow Eqn.
 Solving:  Stress period:     2    Time step:   111    Groundwater-Flow Eqn.
 Solving:  Stress period:     2    Time step:   112    Groundwater-Flow Eqn.
 Solving:  Stress period:     2    Time step:   113    Groundwater-Flow Eqn.
 Solving:  Stress period:     2    Time step:   114    Groundwater-Flow Eqn.
 Solving:  Stress period:     2    Time step:   115    Groundwater-Flow Eqn.
 Solving:  Stress period:     2    Time step:   116    Groundwater-Flow Eqn.
 Solving:  Stress period:     2    Time step:   117    Groundwater-Flow Eqn.
 Solving:  Stress period:     2    Time step:   118    Groundwater-Flow Eqn.
 Solving:  Stress period:     2    Time step:   119    Groundwater-Flow Eqn.
 Solving:  Stress period:     2    Time step:   120    Groundwater-Flow Eqn.
 Solving:  Stress period:     2    Time step:   121    Groundwater-Flow Eqn.
 Solving:  Stress period:     2    Time step:   122    Groundwater-Flow Eqn.
 Solving:  Stress period:     2    Time step:   123    Groundwater-Flow Eqn.
 Solving:  Stress period:     2    Time step:   124    Groundwater-Flow Eqn.
 Solving:  Stress period:     2    Time step:   125    Groundwater-Flow Eqn.
 Solving:  Stress period:     2    Time step:   126    Groundwater-Flow Eqn.
 Solving:  Stress period:     2    Time step:   127    Groundwater-Flow Eqn.
 Solving:  Stress period:     2    Time step:   128    Groundwater-Flow Eqn.
 Solving:  Stress period:     2    Time step:   129    Groundwater-Flow Eqn.
 Solving:  Stress period:     2    Time step:   130    Groundwater-Flow Eqn.
 Solving:  Stress period:     2    Time step:   131    Groundwater-Flow Eqn.
 Solving:  Stress period:     2    Time step:   132    Groundwater-Flow Eqn.
 Solving:  Stress period:     2    Time step:   133    Groundwater-Flow Eqn.
 Solving:  Stress period:     2    Time step:   134    Groundwater-Flow Eqn.
 Solving:  Stress period:     2    Time step:   135    Groundwater-Flow Eqn.
 Solving:  Stress period:     2    Time step:   136    Groundwater-Flow Eqn.
 Solving:  Stress period:     2    Time step:   137    Groundwater-Flow Eqn.
 Solving:  Stress period:     2    Time step:   138    Groundwater-Flow Eqn.
 Solving:  Stress period:     2    Time step:   139    Groundwater-Flow Eqn.
 Solving:  Stress period:     2    Time step:   140    Groundwater-Flow Eqn.
 Solving:  Stress period:     2    Time step:   141    Groundwater-Flow Eqn.
 Solving:  Stress period:     2    Time step:   142    Groundwater-Flow Eqn.
 Solving:  Stress period:     2    Time step:   143    Groundwater-Flow Eqn.
 Solving:  Stress period:     2    Time step:   144    Groundwater-Flow Eqn.
 Solving:  Stress period:     2    Time step:   145    Groundwater-Flow Eqn.
 Solving:  Stress period:     2    Time step:   146    Groundwater-Flow Eqn.
 Solving:  Stress period:     2    Time step:   147    Groundwater-Flow Eqn.
 Solving:  Stress period:     2    Time step:   148    Groundwater-Flow Eqn.
 Solving:  Stress period:     2    Time step:   149    Groundwater-Flow Eqn.
 Solving:  Stress period:     2    Time step:   150    Groundwater-Flow Eqn.
 Solving:  Stress period:     2    Time step:   151    Groundwater-Flow Eqn.
 Solving:  Stress period:     2    Time step:   152    Groundwater-Flow Eqn.
 Solving:  Stress period:     2    Time step:   153    Groundwater-Flow Eqn.
 Solving:  Stress period:     2    Time step:   154    Groundwater-Flow Eqn.
 Solving:  Stress period:     2    Time step:   155    Groundwater-Flow Eqn.
 Solving:  Stress period:     2    Time step:   156    Groundwater-Flow Eqn.
 Solving:  Stress period:     2    Time step:   157    Groundwater-Flow Eqn.
 Solving:  Stress period:     2    Time step:   158    Groundwater-Flow Eqn.
 Solving:  Stress period:     2    Time step:   159    Groundwater-Flow Eqn.
 Solving:  Stress period:     2    Time step:   160    Groundwater-Flow Eqn.
 Solving:  Stress period:     2    Time step:   161    Groundwater-Flow Eqn.
 Solving:  Stress period:     2    Time step:   162    Groundwater-Flow Eqn.
 Solving:  Stress period:     2    Time step:   163    Groundwater-Flow Eqn.
 Solving:  Stress period:     2    Time step:   164    Groundwater-Flow Eqn.
 Solving:  Stress period:     2    Time step:   165    Groundwater-Flow Eqn.
 Solving:  Stress period:     2    Time step:   166    Groundwater-Flow Eqn.
 Solving:  Stress period:     2    Time step:   167    Groundwater-Flow Eqn.
 Solving:  Stress period:     2    Time step:   168    Groundwater-Flow Eqn.
 Solving:  Stress period:     2    Time step:   169    Groundwater-Flow Eqn.
 Solving:  Stress period:     2    Time step:   170    Groundwater-Flow Eqn.
 Solving:  Stress period:     2    Time step:   171    Groundwater-Flow Eqn.
 Solving:  Stress period:     2    Time step:   172    Groundwater-Flow Eqn.
 Solving:  Stress period:     2    Time step:   173    Groundwater-Flow Eqn.
 Solving:  Stress period:     2    Time step:   174    Groundwater-Flow Eqn.
 Solving:  Stress period:     2    Time step:   175    Groundwater-Flow Eqn.
 Solving:  Stress period:     2    Time step:   176    Groundwater-Flow Eqn.
 Solving:  Stress period:     2    Time step:   177    Groundwater-Flow Eqn.
 Solving:  Stress period:     2    Time step:   178    Groundwater-Flow Eqn.
 Solving:  Stress period:     2    Time step:   179    Groundwater-Flow Eqn.
 Solving:  Stress period:     2    Time step:   180    Groundwater-Flow Eqn.
 Solving:  Stress period:     2    Time step:   181    Groundwater-Flow Eqn.
 Solving:  Stress period:     2    Time step:   182    Groundwater-Flow Eqn.
 Solving:  Stress period:     2    Time step:   183    Groundwater-Flow Eqn.
 Solving:  Stress period:     2    Time step:   184    Groundwater-Flow Eqn.
 Solving:  Stress period:     2    Time step:   185    Groundwater-Flow Eqn.
 Solving:  Stress period:     2    Time step:   186    Groundwater-Flow Eqn.
 Solving:  Stress period:     2    Time step:   187    Groundwater-Flow Eqn.
 Solving:  Stress period:     2    Time step:   188    Groundwater-Flow Eqn.
 Solving:  Stress period:     2    Time step:   189    Groundwater-Flow Eqn.
 Solving:  Stress period:     2    Time step:   190    Groundwater-Flow Eqn.
 Solving:  Stress period:     2    Time step:   191    Groundwater-Flow Eqn.
 Solving:  Stress period:     2    Time step:   192    Groundwater-Flow Eqn.
 Solving:  Stress period:     2    Time step:   193    Groundwater-Flow Eqn.
 Solving:  Stress period:     2    Time step:   194    Groundwater-Flow Eqn.
 Solving:  Stress period:     2    Time step:   195    Groundwater-Flow Eqn.
 Solving:  Stress period:     2    Time step:   196    Groundwater-Flow Eqn.
 Solving:  Stress period:     2    Time step:   197    Groundwater-Flow Eqn.
 Solving:  Stress period:     2    Time step:   198    Groundwater-Flow Eqn.
 Solving:  Stress period:     2    Time step:   199    Groundwater-Flow Eqn.
 Solving:  Stress period:     2    Time step:   200    Groundwater-Flow Eqn.
 Solving:  Stress period:     2    Time step:   201    Groundwater-Flow Eqn.
 Solving:  Stress period:     2    Time step:   202    Groundwater-Flow Eqn.
 Solving:  Stress period:     2    Time step:   203    Groundwater-Flow Eqn.
 Solving:  Stress period:     2    Time step:   204    Groundwater-Flow Eqn.
 Solving:  Stress period:     2    Time step:   205    Groundwater-Flow Eqn.
 Solving:  Stress period:     2    Time step:   206    Groundwater-Flow Eqn.
 Solving:  Stress period:     2    Time step:   207    Groundwater-Flow Eqn.
 Solving:  Stress period:     2    Time step:   208    Groundwater-Flow Eqn.
 Solving:  Stress period:     2    Time step:   209    Groundwater-Flow Eqn.
 Solving:  Stress period:     2    Time step:   210    Groundwater-Flow Eqn.
 Solving:  Stress period:     2    Time step:   211    Groundwater-Flow Eqn.
 Solving:  Stress period:     2    Time step:   212    Groundwater-Flow Eqn.
 Solving:  Stress period:     2    Time step:   213    Groundwater-Flow Eqn.
 Solving:  Stress period:     2    Time step:   214    Groundwater-Flow Eqn.
 Solving:  Stress period:     2    Time step:   215    Groundwater-Flow Eqn.
 Solving:  Stress period:     2    Time step:   216    Groundwater-Flow Eqn.
 Solving:  Stress period:     2    Time step:   217    Groundwater-Flow Eqn.
 Solving:  Stress period:     2    Time step:   218    Groundwater-Flow Eqn.
 Solving:  Stress period:     2    Time step:   219    Groundwater-Flow Eqn.
 Solving:  Stress period:     2    Time step:   220    Groundwater-Flow Eqn.
 Solving:  Stress period:     2    Time step:   221    Groundwater-Flow Eqn.
 Solving:  Stress period:     2    Time step:   222    Groundwater-Flow Eqn.
 Solving:  Stress period:     2    Time step:   223    Groundwater-Flow Eqn.
 Solving:  Stress period:     2    Time step:   224    Groundwater-Flow Eqn.
 Solving:  Stress period:     2    Time step:   225    Groundwater-Flow Eqn.
 Solving:  Stress period:     2    Time step:   226    Groundwater-Flow Eqn.
 Solving:  Stress period:     2    Time step:   227    Groundwater-Flow Eqn.
 Solving:  Stress period:     2    Time step:   228    Groundwater-Flow Eqn.
 Solving:  Stress period:     2    Time step:   229    Groundwater-Flow Eqn.
 Solving:  Stress period:     2    Time step:   230    Groundwater-Flow Eqn.
 Solving:  Stress period:     2    Time step:   231    Groundwater-Flow Eqn.
 Solving:  Stress period:     2    Time step:   232    Groundwater-Flow Eqn.
 Solving:  Stress period:     2    Time step:   233    Groundwater-Flow Eqn.
 Solving:  Stress period:     2    Time step:   234    Groundwater-Flow Eqn.
 Solving:  Stress period:     2    Time step:   235    Groundwater-Flow Eqn.
 Solving:  Stress period:     2    Time step:   236    Groundwater-Flow Eqn.
 Solving:  Stress period:     2    Time step:   237    Groundwater-Flow Eqn.
 Solving:  Stress period:     2    Time step:   238    Groundwater-Flow Eqn.
 Solving:  Stress period:     2    Time step:   239    Groundwater-Flow Eqn.
 Solving:  Stress period:     2    Time step:   240    Groundwater-Flow Eqn.
 Solving:  Stress period:     2    Time step:   241    Groundwater-Flow Eqn.
 Solving:  Stress period:     2    Time step:   242    Groundwater-Flow Eqn.
 Solving:  Stress period:     2    Time step:   243    Groundwater-Flow Eqn.
 Solving:  Stress period:     2    Time step:   244    Groundwater-Flow Eqn.
 Solving:  Stress period:     2    Time step:   245    Groundwater-Flow Eqn.
 Solving:  Stress period:     2    Time step:   246    Groundwater-Flow Eqn.
 Solving:  Stress period:     2    Time step:   247    Groundwater-Flow Eqn.
 Solving:  Stress period:     2    Time step:   248    Groundwater-Flow Eqn.
 Solving:  Stress period:     2    Time step:   249    Groundwater-Flow Eqn.
 Solving:  Stress period:     2    Time step:   250    Groundwater-Flow Eqn.
 Solving:  Stress period:     2    Time step:   251    Groundwater-Flow Eqn.
 Solving:  Stress period:     2    Time step:   252    Groundwater-Flow Eqn.
 Solving:  Stress period:     2    Time step:   253    Groundwater-Flow Eqn.
 Solving:  Stress period:     2    Time step:   254    Groundwater-Flow Eqn.
 Solving:  Stress period:     2    Time step:   255    Groundwater-Flow Eqn.
 Solving:  Stress period:     2    Time step:   256    Groundwater-Flow Eqn.
 Solving:  Stress period:     2    Time step:   257    Groundwater-Flow Eqn.
 Solving:  Stress period:     2    Time step:   258    Groundwater-Flow Eqn.
 Solving:  Stress period:     2    Time step:   259    Groundwater-Flow Eqn.
 Solving:  Stress period:     2    Time step:   260    Groundwater-Flow Eqn.
 Solving:  Stress period:     2    Time step:   261    Groundwater-Flow Eqn.
 Solving:  Stress period:     2    Time step:   262    Groundwater-Flow Eqn.
 Solving:  Stress period:     2    Time step:   263    Groundwater-Flow Eqn.
 Solving:  Stress period:     2    Time step:   264    Groundwater-Flow Eqn.
 Solving:  Stress period:     2    Time step:   265    Groundwater-Flow Eqn.
 Solving:  Stress period:     2    Time step:   266    Groundwater-Flow Eqn.
 Solving:  Stress period:     2    Time step:   267    Groundwater-Flow Eqn.
 Solving:  Stress period:     2    Time step:   268    Groundwater-Flow Eqn.
 Solving:  Stress period:     2    Time step:   269    Groundwater-Flow Eqn.
 Solving:  Stress period:     2    Time step:   270    Groundwater-Flow Eqn.
 Solving:  Stress period:     2    Time step:   271    Groundwater-Flow Eqn.
 Solving:  Stress period:     2    Time step:   272    Groundwater-Flow Eqn.
 Solving:  Stress period:     2    Time step:   273    Groundwater-Flow Eqn.
 Solving:  Stress period:     2    Time step:   274    Groundwater-Flow Eqn.
 Solving:  Stress period:     2    Time step:   275    Groundwater-Flow Eqn.
 Solving:  Stress period:     2    Time step:   276    Groundwater-Flow Eqn.
 Solving:  Stress period:     2    Time step:   277    Groundwater-Flow Eqn.
 Solving:  Stress period:     2    Time step:   278    Groundwater-Flow Eqn.
 Solving:  Stress period:     2    Time step:   279    Groundwater-Flow Eqn.
 Solving:  Stress period:     2    Time step:   280    Groundwater-Flow Eqn.
 Solving:  Stress period:     2    Time step:   281    Groundwater-Flow Eqn.
 Solving:  Stress period:     2    Time step:   282    Groundwater-Flow Eqn.
 Solving:  Stress period:     2    Time step:   283    Groundwater-Flow Eqn.
 Solving:  Stress period:     2    Time step:   284    Groundwater-Flow Eqn.
 Solving:  Stress period:     2    Time step:   285    Groundwater-Flow Eqn.
 Solving:  Stress period:     2    Time step:   286    Groundwater-Flow Eqn.
 Solving:  Stress period:     2    Time step:   287    Groundwater-Flow Eqn.
 Solving:  Stress period:     2    Time step:   288    Groundwater-Flow Eqn.
 Solving:  Stress period:     2    Time step:   289    Groundwater-Flow Eqn.
 Solving:  Stress period:     2    Time step:   290    Groundwater-Flow Eqn.
 Solving:  Stress period:     2    Time step:   291    Groundwater-Flow Eqn.
 Solving:  Stress period:     2    Time step:   292    Groundwater-Flow Eqn.
 Solving:  Stress period:     2    Time step:   293    Groundwater-Flow Eqn.
 Solving:  Stress period:     2    Time step:   294    Groundwater-Flow Eqn.
 Solving:  Stress period:     2    Time step:   295    Groundwater-Flow Eqn.
 Solving:  Stress period:     2    Time step:   296    Groundwater-Flow Eqn.
 Solving:  Stress period:     2    Time step:   297    Groundwater-Flow Eqn.
 Solving:  Stress period:     2    Time step:   298    Groundwater-Flow Eqn.
 Solving:  Stress period:     2    Time step:   299    Groundwater-Flow Eqn.
 Solving:  Stress period:     2    Time step:   300    Groundwater-Flow Eqn.
 Solving:  Stress period:     2    Time step:   301    Groundwater-Flow Eqn.
 Solving:  Stress period:     2    Time step:   302    Groundwater-Flow Eqn.
 Solving:  Stress period:     2    Time step:   303    Groundwater-Flow Eqn.
 Solving:  Stress period:     2    Time step:   304    Groundwater-Flow Eqn.
 Solving:  Stress period:     2    Time step:   305    Groundwater-Flow Eqn.
 Solving:  Stress period:     2    Time step:   306    Groundwater-Flow Eqn.
 Solving:  Stress period:     2    Time step:   307    Groundwater-Flow Eqn.
 Solving:  Stress period:     2    Time step:   308    Groundwater-Flow Eqn.
 Solving:  Stress period:     2    Time step:   309    Groundwater-Flow Eqn.
 Solving:  Stress period:     2    Time step:   310    Groundwater-Flow Eqn.
 Solving:  Stress period:     2    Time step:   311    Groundwater-Flow Eqn.
 Solving:  Stress period:     2    Time step:   312    Groundwater-Flow Eqn.
 Solving:  Stress period:     2    Time step:   313    Groundwater-Flow Eqn.
 Solving:  Stress period:     2    Time step:   314    Groundwater-Flow Eqn.
 Solving:  Stress period:     2    Time step:   315    Groundwater-Flow Eqn.
 Solving:  Stress period:     2    Time step:   316    Groundwater-Flow Eqn.
 Solving:  Stress period:     2    Time step:   317    Groundwater-Flow Eqn.
 Solving:  Stress period:     2    Time step:   318    Groundwater-Flow Eqn.
 Solving:  Stress period:     2    Time step:   319    Groundwater-Flow Eqn.
 Solving:  Stress period:     2    Time step:   320    Groundwater-Flow Eqn.
 Solving:  Stress period:     2    Time step:   321    Groundwater-Flow Eqn.
 Solving:  Stress period:     2    Time step:   322    Groundwater-Flow Eqn.
 Solving:  Stress period:     2    Time step:   323    Groundwater-Flow Eqn.
 Solving:  Stress period:     2    Time step:   324    Groundwater-Flow Eqn.
 Solving:  Stress period:     2    Time step:   325    Groundwater-Flow Eqn.
 Solving:  Stress period:     2    Time step:   326    Groundwater-Flow Eqn.
 Solving:  Stress period:     2    Time step:   327    Groundwater-Flow Eqn.
 Solving:  Stress period:     2    Time step:   328    Groundwater-Flow Eqn.
 Solving:  Stress period:     2    Time step:   329    Groundwater-Flow Eqn.
 Solving:  Stress period:     2    Time step:   330    Groundwater-Flow Eqn.
 Solving:  Stress period:     2    Time step:   331    Groundwater-Flow Eqn.
 Solving:  Stress period:     2    Time step:   332    Groundwater-Flow Eqn.
 Solving:  Stress period:     2    Time step:   333    Groundwater-Flow Eqn.
 Solving:  Stress period:     2    Time step:   334    Groundwater-Flow Eqn.
 Solving:  Stress period:     2    Time step:   335    Groundwater-Flow Eqn.
 Solving:  Stress period:     2    Time step:   336    Groundwater-Flow Eqn.
 Solving:  Stress period:     2    Time step:   337    Groundwater-Flow Eqn.
 Solving:  Stress period:     2    Time step:   338    Groundwater-Flow Eqn.
 Solving:  Stress period:     2    Time step:   339    Groundwater-Flow Eqn.
 Solving:  Stress period:     2    Time step:   340    Groundwater-Flow Eqn.
 Solving:  Stress period:     2    Time step:   341    Groundwater-Flow Eqn.
 Solving:  Stress period:     2    Time step:   342    Groundwater-Flow Eqn.
 Solving:  Stress period:     2    Time step:   343    Groundwater-Flow Eqn.
 Solving:  Stress period:     2    Time step:   344    Groundwater-Flow Eqn.
 Solving:  Stress period:     2    Time step:   345    Groundwater-Flow Eqn.
 Solving:  Stress period:     2    Time step:   346    Groundwater-Flow Eqn.
 Solving:  Stress period:     2    Time step:   347    Groundwater-Flow Eqn.
 Solving:  Stress period:     2    Time step:   348    Groundwater-Flow Eqn.
 Solving:  Stress period:     2    Time step:   349    Groundwater-Flow Eqn.
 Solving:  Stress period:     2    Time step:   350    Groundwater-Flow Eqn.
 Solving:  Stress period:     2    Time step:   351    Groundwater-Flow Eqn.
 Solving:  Stress period:     2    Time step:   352    Groundwater-Flow Eqn.
 Solving:  Stress period:     2    Time step:   353    Groundwater-Flow Eqn.
 Solving:  Stress period:     2    Time step:   354    Groundwater-Flow Eqn.
 Solving:  Stress period:     2    Time step:   355    Groundwater-Flow Eqn.
 Solving:  Stress period:     2    Time step:   356    Groundwater-Flow Eqn.
 Solving:  Stress period:     2    Time step:   357    Groundwater-Flow Eqn.
 Solving:  Stress period:     2    Time step:   358    Groundwater-Flow Eqn.
 Solving:  Stress period:     2    Time step:   359    Groundwater-Flow Eqn.
 Solving:  Stress period:     2    Time step:   360    Groundwater-Flow Eqn.
 Solving:  Stress period:     2    Time step:   361    Groundwater-Flow Eqn.
 Solving:  Stress period:     2    Time step:   362    Groundwater-Flow Eqn.
 Solving:  Stress period:     2    Time step:   363    Groundwater-Flow Eqn.
 Solving:  Stress period:     2    Time step:   364    Groundwater-Flow Eqn.
 Solving:  Stress period:     2    Time step:   365    Groundwater-Flow Eqn.
 Solving:  Stress period:     2    Time step:   366    Groundwater-Flow Eqn.
 Solving:  Stress period:     2    Time step:   367    Groundwater-Flow Eqn.
 Solving:  Stress period:     2    Time step:   368    Groundwater-Flow Eqn.
 Solving:  Stress period:     2    Time step:   369    Groundwater-Flow Eqn.
 Solving:  Stress period:     2    Time step:   370    Groundwater-Flow Eqn.
 Solving:  Stress period:     2    Time step:   371    Groundwater-Flow Eqn.
 Solving:  Stress period:     2    Time step:   372    Groundwater-Flow Eqn.
 Solving:  Stress period:     2    Time step:   373    Groundwater-Flow Eqn.
 Solving:  Stress period:     2    Time step:   374    Groundwater-Flow Eqn.
 Solving:  Stress period:     2    Time step:   375    Groundwater-Flow Eqn.
 Solving:  Stress period:     2    Time step:   376    Groundwater-Flow Eqn.
 Solving:  Stress period:     2    Time step:   377    Groundwater-Flow Eqn.
 Solving:  Stress period:     2    Time step:   378    Groundwater-Flow Eqn.
 Solving:  Stress period:     2    Time step:   379    Groundwater-Flow Eqn.
 Solving:  Stress period:     2    Time step:   380    Groundwater-Flow Eqn.
 Solving:  Stress period:     2    Time step:   381    Groundwater-Flow Eqn.
 Solving:  Stress period:     2    Time step:   382    Groundwater-Flow Eqn.
 Solving:  Stress period:     2    Time step:   383    Groundwater-Flow Eqn.
 Solving:  Stress period:     2    Time step:   384    Groundwater-Flow Eqn.
 Solving:  Stress period:     2    Time step:   385    Groundwater-Flow Eqn.
 Solving:  Stress period:     2    Time step:   386    Groundwater-Flow Eqn.
 Solving:  Stress period:     2    Time step:   387    Groundwater-Flow Eqn.
 Solving:  Stress period:     2    Time step:   388    Groundwater-Flow Eqn.
 Solving:  Stress period:     2    Time step:   389    Groundwater-Flow Eqn.
 Solving:  Stress period:     2    Time step:   390    Groundwater-Flow Eqn.
 Solving:  Stress period:     2    Time step:   391    Groundwater-Flow Eqn.
 Solving:  Stress period:     2    Time step:   392    Groundwater-Flow Eqn.
 Solving:  Stress period:     2    Time step:   393    Groundwater-Flow Eqn.
 Solving:  Stress period:     2    Time step:   394    Groundwater-Flow Eqn.
 Solving:  Stress period:     2    Time step:   395    Groundwater-Flow Eqn.
 Solving:  Stress period:     2    Time step:   396    Groundwater-Flow Eqn.
 Solving:  Stress period:     2    Time step:   397    Groundwater-Flow Eqn.
 Solving:  Stress period:     2    Time step:   398    Groundwater-Flow Eqn.
 Solving:  Stress period:     2    Time step:   399    Groundwater-Flow Eqn.
 Solving:  Stress period:     2    Time step:   400    Groundwater-Flow Eqn.
 Solving:  Stress period:     2    Time step:   401    Groundwater-Flow Eqn.
 Solving:  Stress period:     2    Time step:   402    Groundwater-Flow Eqn.
 Solving:  Stress period:     2    Time step:   403    Groundwater-Flow Eqn.
 Solving:  Stress period:     2    Time step:   404    Groundwater-Flow Eqn.
 Solving:  Stress period:     2    Time step:   405    Groundwater-Flow Eqn.
 Solving:  Stress period:     2    Time step:   406    Groundwater-Flow Eqn.
 Solving:  Stress period:     2    Time step:   407    Groundwater-Flow Eqn.
 Solving:  Stress period:     2    Time step:   408    Groundwater-Flow Eqn.
 Solving:  Stress period:     2    Time step:   409    Groundwater-Flow Eqn.
 Solving:  Stress period:     2    Time step:   410    Groundwater-Flow Eqn.
 Solving:  Stress period:     2    Time step:   411    Groundwater-Flow Eqn.
 Solving:  Stress period:     2    Time step:   412    Groundwater-Flow Eqn.
 Solving:  Stress period:     2    Time step:   413    Groundwater-Flow Eqn.
 Solving:  Stress period:     2    Time step:   414    Groundwater-Flow Eqn.
 Solving:  Stress period:     2    Time step:   415    Groundwater-Flow Eqn.
 Solving:  Stress period:     2    Time step:   416    Groundwater-Flow Eqn.
 Solving:  Stress period:     2    Time step:   417    Groundwater-Flow Eqn.
 Solving:  Stress period:     2    Time step:   418    Groundwater-Flow Eqn.
 Solving:  Stress period:     2    Time step:   419    Groundwater-Flow Eqn.
 Solving:  Stress period:     2    Time step:   420    Groundwater-Flow Eqn.
 Solving:  Stress period:     2    Time step:   421    Groundwater-Flow Eqn.
 Solving:  Stress period:     2    Time step:   422    Groundwater-Flow Eqn.
 Solving:  Stress period:     2    Time step:   423    Groundwater-Flow Eqn.
 Solving:  Stress period:     2    Time step:   424    Groundwater-Flow Eqn.
 Solving:  Stress period:     2    Time step:   425    Groundwater-Flow Eqn.
 Solving:  Stress period:     2    Time step:   426    Groundwater-Flow Eqn.
 Solving:  Stress period:     2    Time step:   427    Groundwater-Flow Eqn.
 Solving:  Stress period:     2    Time step:   428    Groundwater-Flow Eqn.
 Solving:  Stress period:     2    Time step:   429    Groundwater-Flow Eqn.
 Solving:  Stress period:     2    Time step:   430    Groundwater-Flow Eqn.
 Solving:  Stress period:     2    Time step:   431    Groundwater-Flow Eqn.
 Solving:  Stress period:     2    Time step:   432    Groundwater-Flow Eqn.
 Solving:  Stress period:     2    Time step:   433    Groundwater-Flow Eqn.
 Solving:  Stress period:     2    Time step:   434    Groundwater-Flow Eqn.
 Solving:  Stress period:     2    Time step:   435    Groundwater-Flow Eqn.
 Solving:  Stress period:     2    Time step:   436    Groundwater-Flow Eqn.
 Solving:  Stress period:     2    Time step:   437    Groundwater-Flow Eqn.
 Solving:  Stress period:     2    Time step:   438    Groundwater-Flow Eqn.
 Solving:  Stress period:     2    Time step:   439    Groundwater-Flow Eqn.
 Solving:  Stress period:     2    Time step:   440    Groundwater-Flow Eqn.
 Solving:  Stress period:     2    Time step:   441    Groundwater-Flow Eqn.
 Solving:  Stress period:     2    Time step:   442    Groundwater-Flow Eqn.
 Solving:  Stress period:     2    Time step:   443    Groundwater-Flow Eqn.
 Solving:  Stress period:     2    Time step:   444    Groundwater-Flow Eqn.
 Solving:  Stress period:     2    Time step:   445    Groundwater-Flow Eqn.
 Solving:  Stress period:     2    Time step:   446    Groundwater-Flow Eqn.
 Solving:  Stress period:     2    Time step:   447    Groundwater-Flow Eqn.
 Solving:  Stress period:     2    Time step:   448    Groundwater-Flow Eqn.
 Solving:  Stress period:     2    Time step:   449    Groundwater-Flow Eqn.
 Solving:  Stress period:     2    Time step:   450    Groundwater-Flow Eqn.
 Solving:  Stress period:     2    Time step:   451    Groundwater-Flow Eqn.
 Solving:  Stress period:     2    Time step:   452    Groundwater-Flow Eqn.
 Solving:  Stress period:     2    Time step:   453    Groundwater-Flow Eqn.
 Solving:  Stress period:     2    Time step:   454    Groundwater-Flow Eqn.
 Solving:  Stress period:     2    Time step:   455    Groundwater-Flow Eqn.
 Solving:  Stress period:     2    Time step:   456    Groundwater-Flow Eqn.
 Solving:  Stress period:     2    Time step:   457    Groundwater-Flow Eqn.
 Solving:  Stress period:     2    Time step:   458    Groundwater-Flow Eqn.
 Solving:  Stress period:     2    Time step:   459    Groundwater-Flow Eqn.
 Solving:  Stress period:     2    Time step:   460    Groundwater-Flow Eqn.
 Solving:  Stress period:     2    Time step:   461    Groundwater-Flow Eqn.
 Solving:  Stress period:     2    Time step:   462    Groundwater-Flow Eqn.
 Solving:  Stress period:     2    Time step:   463    Groundwater-Flow Eqn.
 Solving:  Stress period:     2    Time step:   464    Groundwater-Flow Eqn.
 Solving:  Stress period:     2    Time step:   465    Groundwater-Flow Eqn.
 Solving:  Stress period:     2    Time step:   466    Groundwater-Flow Eqn.
 Solving:  Stress period:     2    Time step:   467    Groundwater-Flow Eqn.
 Solving:  Stress period:     2    Time step:   468    Groundwater-Flow Eqn.
 Solving:  Stress period:     2    Time step:   469    Groundwater-Flow Eqn.
 Solving:  Stress period:     2    Time step:   470    Groundwater-Flow Eqn.
 Solving:  Stress period:     2    Time step:   471    Groundwater-Flow Eqn.
 Solving:  Stress period:     2    Time step:   472    Groundwater-Flow Eqn.
 Solving:  Stress period:     2    Time step:   473    Groundwater-Flow Eqn.
 Solving:  Stress period:     2    Time step:   474    Groundwater-Flow Eqn.
 Solving:  Stress period:     2    Time step:   475    Groundwater-Flow Eqn.
 Solving:  Stress period:     2    Time step:   476    Groundwater-Flow Eqn.
 Solving:  Stress period:     2    Time step:   477    Groundwater-Flow Eqn.
 Solving:  Stress period:     2    Time step:   478    Groundwater-Flow Eqn.
 Solving:  Stress period:     2    Time step:   479    Groundwater-Flow Eqn.
 Solving:  Stress period:     2    Time step:   480    Groundwater-Flow Eqn.
 Solving:  Stress period:     2    Time step:   481    Groundwater-Flow Eqn.
 Solving:  Stress period:     2    Time step:   482    Groundwater-Flow Eqn.
 Solving:  Stress period:     2    Time step:   483    Groundwater-Flow Eqn.
 Solving:  Stress period:     2    Time step:   484    Groundwater-Flow Eqn.
 Solving:  Stress period:     2    Time step:   485    Groundwater-Flow Eqn.
 Solving:  Stress period:     2    Time step:   486    Groundwater-Flow Eqn.
 Solving:  Stress period:     2    Time step:   487    Groundwater-Flow Eqn.
 Solving:  Stress period:     2    Time step:   488    Groundwater-Flow Eqn.
 Solving:  Stress period:     2    Time step:   489    Groundwater-Flow Eqn.
 Solving:  Stress period:     2    Time step:   490    Groundwater-Flow Eqn.
 Solving:  Stress period:     2    Time step:   491    Groundwater-Flow Eqn.
 Solving:  Stress period:     2    Time step:   492    Groundwater-Flow Eqn.
 Solving:  Stress period:     2    Time step:   493    Groundwater-Flow Eqn.
 Solving:  Stress period:     2    Time step:   494    Groundwater-Flow Eqn.
 Solving:  Stress period:     2    Time step:   495    Groundwater-Flow Eqn.
 Solving:  Stress period:     2    Time step:   496    Groundwater-Flow Eqn.
 Solving:  Stress period:     2    Time step:   497    Groundwater-Flow Eqn.
 Solving:  Stress period:     2    Time step:   498    Groundwater-Flow Eqn.
 Solving:  Stress period:     2    Time step:   499    Groundwater-Flow Eqn.
 Solving:  Stress period:     2    Time step:   500    Groundwater-Flow Eqn.
 Solving:  Stress period:     2    Time step:   501    Groundwater-Flow Eqn.
 Solving:  Stress period:     2    Time step:   502    Groundwater-Flow Eqn.
 Solving:  Stress period:     2    Time step:   503    Groundwater-Flow Eqn.
 Solving:  Stress period:     2    Time step:   504    Groundwater-Flow Eqn.
 Solving:  Stress period:     2    Time step:   505    Groundwater-Flow Eqn.
 Solving:  Stress period:     2    Time step:   506    Groundwater-Flow Eqn.
 Solving:  Stress period:     2    Time step:   507    Groundwater-Flow Eqn.
 Solving:  Stress period:     2    Time step:   508    Groundwater-Flow Eqn.
 Solving:  Stress period:     2    Time step:   509    Groundwater-Flow Eqn.
 Solving:  Stress period:     2    Time step:   510    Groundwater-Flow Eqn.
 Solving:  Stress period:     2    Time step:   511    Groundwater-Flow Eqn.
 Solving:  Stress period:     2    Time step:   512    Groundwater-Flow Eqn.
 Solving:  Stress period:     2    Time step:   513    Groundwater-Flow Eqn.
 Solving:  Stress period:     2    Time step:   514    Groundwater-Flow Eqn.
 Solving:  Stress period:     2    Time step:   515    Groundwater-Flow Eqn.
 Solving:  Stress period:     2    Time step:   516    Groundwater-Flow Eqn.
 Solving:  Stress period:     2    Time step:   517    Groundwater-Flow Eqn.
 Solving:  Stress period:     2    Time step:   518    Groundwater-Flow Eqn.
 Solving:  Stress period:     2    Time step:   519    Groundwater-Flow Eqn.
 Solving:  Stress period:     2    Time step:   520    Groundwater-Flow Eqn.
 Solving:  Stress period:     2    Time step:   521    Groundwater-Flow Eqn.
 Solving:  Stress period:     2    Time step:   522    Groundwater-Flow Eqn.
 Solving:  Stress period:     2    Time step:   523    Groundwater-Flow Eqn.
 Solving:  Stress period:     2    Time step:   524    Groundwater-Flow Eqn.
 Solving:  Stress period:     2    Time step:   525    Groundwater-Flow Eqn.
 Solving:  Stress period:     2    Time step:   526    Groundwater-Flow Eqn.
 Solving:  Stress period:     2    Time step:   527    Groundwater-Flow Eqn.
 Solving:  Stress period:     2    Time step:   528    Groundwater-Flow Eqn.
 Solving:  Stress period:     2    Time step:   529    Groundwater-Flow Eqn.
 Solving:  Stress period:     2    Time step:   530    Groundwater-Flow Eqn.
 Solving:  Stress period:     2    Time step:   531    Groundwater-Flow Eqn.
 Solving:  Stress period:     2    Time step:   532    Groundwater-Flow Eqn.
 Solving:  Stress period:     2    Time step:   533    Groundwater-Flow Eqn.
 Solving:  Stress period:     2    Time step:   534    Groundwater-Flow Eqn.
 Solving:  Stress period:     2    Time step:   535    Groundwater-Flow Eqn.
 Solving:  Stress period:     2    Time step:   536    Groundwater-Flow Eqn.
 Solving:  Stress period:     2    Time step:   537    Groundwater-Flow Eqn.
 Solving:  Stress period:     2    Time step:   538    Groundwater-Flow Eqn.
 Solving:  Stress period:     2    Time step:   539    Groundwater-Flow Eqn.
 Solving:  Stress period:     2    Time step:   540    Groundwater-Flow Eqn.
 Solving:  Stress period:     2    Time step:   541    Groundwater-Flow Eqn.
 Solving:  Stress period:     2    Time step:   542    Groundwater-Flow Eqn.
 Solving:  Stress period:     2    Time step:   543    Groundwater-Flow Eqn.
 Solving:  Stress period:     2    Time step:   544    Groundwater-Flow Eqn.
 Solving:  Stress period:     2    Time step:   545    Groundwater-Flow Eqn.
 Solving:  Stress period:     2    Time step:   546    Groundwater-Flow Eqn.
 Solving:  Stress period:     2    Time step:   547    Groundwater-Flow Eqn.
 Solving:  Stress period:     2    Time step:   548    Groundwater-Flow Eqn.
 Solving:  Stress period:     2    Time step:   549    Groundwater-Flow Eqn.
 Solving:  Stress period:     2    Time step:   550    Groundwater-Flow Eqn.
 Solving:  Stress period:     2    Time step:   551    Groundwater-Flow Eqn.
 Solving:  Stress period:     2    Time step:   552    Groundwater-Flow Eqn.
 Solving:  Stress period:     2    Time step:   553    Groundwater-Flow Eqn.
 Solving:  Stress period:     2    Time step:   554    Groundwater-Flow Eqn.
 Solving:  Stress period:     2    Time step:   555    Groundwater-Flow Eqn.
 Solving:  Stress period:     2    Time step:   556    Groundwater-Flow Eqn.
 Solving:  Stress period:     2    Time step:   557    Groundwater-Flow Eqn.
 Solving:  Stress period:     2    Time step:   558    Groundwater-Flow Eqn.
 Solving:  Stress period:     2    Time step:   559    Groundwater-Flow Eqn.
 Solving:  Stress period:     2    Time step:   560    Groundwater-Flow Eqn.
 Solving:  Stress period:     2    Time step:   561    Groundwater-Flow Eqn.
 Solving:  Stress period:     2    Time step:   562    Groundwater-Flow Eqn.
 Solving:  Stress period:     2    Time step:   563    Groundwater-Flow Eqn.
 Solving:  Stress period:     2    Time step:   564    Groundwater-Flow Eqn.
 Solving:  Stress period:     2    Time step:   565    Groundwater-Flow Eqn.
 Solving:  Stress period:     2    Time step:   566    Groundwater-Flow Eqn.
 Solving:  Stress period:     2    Time step:   567    Groundwater-Flow Eqn.
 Solving:  Stress period:     2    Time step:   568    Groundwater-Flow Eqn.
 Solving:  Stress period:     2    Time step:   569    Groundwater-Flow Eqn.
 Solving:  Stress period:     2    Time step:   570    Groundwater-Flow Eqn.
 Solving:  Stress period:     2    Time step:   571    Groundwater-Flow Eqn.
 Solving:  Stress period:     2    Time step:   572    Groundwater-Flow Eqn.
 Solving:  Stress period:     2    Time step:   573    Groundwater-Flow Eqn.
 Solving:  Stress period:     2    Time step:   574    Groundwater-Flow Eqn.
 Solving:  Stress period:     2    Time step:   575    Groundwater-Flow Eqn.
 Solving:  Stress period:     2    Time step:   576    Groundwater-Flow Eqn.
 Solving:  Stress period:     2    Time step:   577    Groundwater-Flow Eqn.
 Solving:  Stress period:     2    Time step:   578    Groundwater-Flow Eqn.
 Solving:  Stress period:     2    Time step:   579    Groundwater-Flow Eqn.
 Solving:  Stress period:     2    Time step:   580    Groundwater-Flow Eqn.
 Solving:  Stress period:     2    Time step:   581    Groundwater-Flow Eqn.
 Solving:  Stress period:     2    Time step:   582    Groundwater-Flow Eqn.
 Solving:  Stress period:     2    Time step:   583    Groundwater-Flow Eqn.
 Solving:  Stress period:     2    Time step:   584    Groundwater-Flow Eqn.
 Solving:  Stress period:     2    Time step:   585    Groundwater-Flow Eqn.
 Solving:  Stress period:     2    Time step:   586    Groundwater-Flow Eqn.
 Solving:  Stress period:     2    Time step:   587    Groundwater-Flow Eqn.
 Solving:  Stress period:     2    Time step:   588    Groundwater-Flow Eqn.
 Solving:  Stress period:     2    Time step:   589    Groundwater-Flow Eqn.
 Solving:  Stress period:     2    Time step:   590    Groundwater-Flow Eqn.
 Solving:  Stress period:     2    Time step:   591    Groundwater-Flow Eqn.
 Solving:  Stress period:     2    Time step:   592    Groundwater-Flow Eqn.
 Solving:  Stress period:     2    Time step:   593    Groundwater-Flow Eqn.
 Solving:  Stress period:     2    Time step:   594    Groundwater-Flow Eqn.
 Solving:  Stress period:     2    Time step:   595    Groundwater-Flow Eqn.
 Solving:  Stress period:     2    Time step:   596    Groundwater-Flow Eqn.
 Solving:  Stress period:     2    Time step:   597    Groundwater-Flow Eqn.
 Solving:  Stress period:     2    Time step:   598    Groundwater-Flow Eqn.
 Solving:  Stress period:     2    Time step:   599    Groundwater-Flow Eqn.
 Solving:  Stress period:     2    Time step:   600    Groundwater-Flow Eqn.
 Solving:  Stress period:     2    Time step:   601    Groundwater-Flow Eqn.
 Solving:  Stress period:     2    Time step:   602    Groundwater-Flow Eqn.
 Solving:  Stress period:     2    Time step:   603    Groundwater-Flow Eqn.
 Solving:  Stress period:     2    Time step:   604    Groundwater-Flow Eqn.
 Solving:  Stress period:     2    Time step:   605    Groundwater-Flow Eqn.
 Solving:  Stress period:     2    Time step:   606    Groundwater-Flow Eqn.
 Solving:  Stress period:     2    Time step:   607    Groundwater-Flow Eqn.
 Solving:  Stress period:     2    Time step:   608    Groundwater-Flow Eqn.
 Solving:  Stress period:     2    Time step:   609    Groundwater-Flow Eqn.
 Solving:  Stress period:     2    Time step:   610    Groundwater-Flow Eqn.
 Solving:  Stress period:     2    Time step:   611    Groundwater-Flow Eqn.
 Solving:  Stress period:     2    Time step:   612    Groundwater-Flow Eqn.
 Solving:  Stress period:     2    Time step:   613    Groundwater-Flow Eqn.
 Solving:  Stress period:     2    Time step:   614    Groundwater-Flow Eqn.
 Solving:  Stress period:     2    Time step:   615    Groundwater-Flow Eqn.
 Solving:  Stress period:     2    Time step:   616    Groundwater-Flow Eqn.
 Solving:  Stress period:     2    Time step:   617    Groundwater-Flow Eqn.
 Solving:  Stress period:     2    Time step:   618    Groundwater-Flow Eqn.
 Solving:  Stress period:     2    Time step:   619    Groundwater-Flow Eqn.
 Solving:  Stress period:     2    Time step:   620    Groundwater-Flow Eqn.
 Solving:  Stress period:     2    Time step:   621    Groundwater-Flow Eqn.
 Solving:  Stress period:     2    Time step:   622    Groundwater-Flow Eqn.
 Solving:  Stress period:     2    Time step:   623    Groundwater-Flow Eqn.
 Solving:  Stress period:     2    Time step:   624    Groundwater-Flow Eqn.
 Solving:  Stress period:     2    Time step:   625    Groundwater-Flow Eqn.
 Solving:  Stress period:     2    Time step:   626    Groundwater-Flow Eqn.
 Solving:  Stress period:     2    Time step:   627    Groundwater-Flow Eqn.
 Solving:  Stress period:     2    Time step:   628    Groundwater-Flow Eqn.
 Solving:  Stress period:     2    Time step:   629    Groundwater-Flow Eqn.
 Solving:  Stress period:     2    Time step:   630    Groundwater-Flow Eqn.
 Solving:  Stress period:     2    Time step:   631    Groundwater-Flow Eqn.
 Solving:  Stress period:     2    Time step:   632    Groundwater-Flow Eqn.
 Solving:  Stress period:     2    Time step:   633    Groundwater-Flow Eqn.
 Solving:  Stress period:     2    Time step:   634    Groundwater-Flow Eqn.
 Solving:  Stress period:     2    Time step:   635    Groundwater-Flow Eqn.
 Solving:  Stress period:     2    Time step:   636    Groundwater-Flow Eqn.
 Solving:  Stress period:     2    Time step:   637    Groundwater-Flow Eqn.
 Solving:  Stress period:     2    Time step:   638    Groundwater-Flow Eqn.
 Solving:  Stress period:     2    Time step:   639    Groundwater-Flow Eqn.
 Solving:  Stress period:     2    Time step:   640    Groundwater-Flow Eqn.
 Solving:  Stress period:     2    Time step:   641    Groundwater-Flow Eqn.
 Solving:  Stress period:     2    Time step:   642    Groundwater-Flow Eqn.
 Solving:  Stress period:     2    Time step:   643    Groundwater-Flow Eqn.
 Solving:  Stress period:     2    Time step:   644    Groundwater-Flow Eqn.
 Solving:  Stress period:     2    Time step:   645    Groundwater-Flow Eqn.
 Solving:  Stress period:     2    Time step:   646    Groundwater-Flow Eqn.
 Solving:  Stress period:     2    Time step:   647    Groundwater-Flow Eqn.
 Solving:  Stress period:     2    Time step:   648    Groundwater-Flow Eqn.
 Solving:  Stress period:     2    Time step:   649    Groundwater-Flow Eqn.
 Solving:  Stress period:     2    Time step:   650    Groundwater-Flow Eqn.
 Solving:  Stress period:     2    Time step:   651    Groundwater-Flow Eqn.
 Solving:  Stress period:     2    Time step:   652    Groundwater-Flow Eqn.
 Solving:  Stress period:     2    Time step:   653    Groundwater-Flow Eqn.
 Solving:  Stress period:     2    Time step:   654    Groundwater-Flow Eqn.
 Solving:  Stress period:     2    Time step:   655    Groundwater-Flow Eqn.
 Solving:  Stress period:     2    Time step:   656    Groundwater-Flow Eqn.
 Solving:  Stress period:     2    Time step:   657    Groundwater-Flow Eqn.
 Solving:  Stress period:     2    Time step:   658    Groundwater-Flow Eqn.
 Solving:  Stress period:     2    Time step:   659    Groundwater-Flow Eqn.
 Solving:  Stress period:     2    Time step:   660    Groundwater-Flow Eqn.
 Solving:  Stress period:     2    Time step:   661    Groundwater-Flow Eqn.
 Solving:  Stress period:     2    Time step:   662    Groundwater-Flow Eqn.
 Solving:  Stress period:     2    Time step:   663    Groundwater-Flow Eqn.
 Solving:  Stress period:     2    Time step:   664    Groundwater-Flow Eqn.
 Solving:  Stress period:     2    Time step:   665    Groundwater-Flow Eqn.
 Solving:  Stress period:     2    Time step:   666    Groundwater-Flow Eqn.
 Solving:  Stress period:     2    Time step:   667    Groundwater-Flow Eqn.
 Solving:  Stress period:     2    Time step:   668    Groundwater-Flow Eqn.
 Solving:  Stress period:     2    Time step:   669    Groundwater-Flow Eqn.
 Solving:  Stress period:     2    Time step:   670    Groundwater-Flow Eqn.
 Solving:  Stress period:     2    Time step:   671    Groundwater-Flow Eqn.
 Solving:  Stress period:     2    Time step:   672    Groundwater-Flow Eqn.
 Solving:  Stress period:     2    Time step:   673    Groundwater-Flow Eqn.
 Solving:  Stress period:     2    Time step:   674    Groundwater-Flow Eqn.
 Solving:  Stress period:     2    Time step:   675    Groundwater-Flow Eqn.
 Solving:  Stress period:     2    Time step:   676    Groundwater-Flow Eqn.
 Solving:  Stress period:     2    Time step:   677    Groundwater-Flow Eqn.
 Solving:  Stress period:     2    Time step:   678    Groundwater-Flow Eqn.
 Solving:  Stress period:     2    Time step:   679    Groundwater-Flow Eqn.
 Solving:  Stress period:     2    Time step:   680    Groundwater-Flow Eqn.
 Solving:  Stress period:     2    Time step:   681    Groundwater-Flow Eqn.
 Solving:  Stress period:     2    Time step:   682    Groundwater-Flow Eqn.
 Solving:  Stress period:     2    Time step:   683    Groundwater-Flow Eqn.
 Solving:  Stress period:     2    Time step:   684    Groundwater-Flow Eqn.
 Solving:  Stress period:     2    Time step:   685    Groundwater-Flow Eqn.
 Solving:  Stress period:     2    Time step:   686    Groundwater-Flow Eqn.
 Solving:  Stress period:     2    Time step:   687    Groundwater-Flow Eqn.
 Solving:  Stress period:     2    Time step:   688    Groundwater-Flow Eqn.
 Solving:  Stress period:     2    Time step:   689    Groundwater-Flow Eqn.
 Solving:  Stress period:     2    Time step:   690    Groundwater-Flow Eqn.
 Solving:  Stress period:     2    Time step:   691    Groundwater-Flow Eqn.
 Solving:  Stress period:     2    Time step:   692    Groundwater-Flow Eqn.
 Solving:  Stress period:     2    Time step:   693    Groundwater-Flow Eqn.
 Solving:  Stress period:     2    Time step:   694    Groundwater-Flow Eqn.
 Solving:  Stress period:     2    Time step:   695    Groundwater-Flow Eqn.
 Solving:  Stress period:     2    Time step:   696    Groundwater-Flow Eqn.
 Solving:  Stress period:     2    Time step:   697    Groundwater-Flow Eqn.
 Solving:  Stress period:     2    Time step:   698    Groundwater-Flow Eqn.
 Solving:  Stress period:     2    Time step:   699    Groundwater-Flow Eqn.
 Solving:  Stress period:     2    Time step:   700    Groundwater-Flow Eqn.
 Solving:  Stress period:     2    Time step:   701    Groundwater-Flow Eqn.
 Solving:  Stress period:     2    Time step:   702    Groundwater-Flow Eqn.
 Solving:  Stress period:     2    Time step:   703    Groundwater-Flow Eqn.
 Solving:  Stress period:     2    Time step:   704    Groundwater-Flow Eqn.
 Solving:  Stress period:     2    Time step:   705    Groundwater-Flow Eqn.
 Solving:  Stress period:     2    Time step:   706    Groundwater-Flow Eqn.
 Solving:  Stress period:     2    Time step:   707    Groundwater-Flow Eqn.
 Solving:  Stress period:     2    Time step:   708    Groundwater-Flow Eqn.
 Solving:  Stress period:     2    Time step:   709    Groundwater-Flow Eqn.
 Solving:  Stress period:     2    Time step:   710    Groundwater-Flow Eqn.
 Solving:  Stress period:     2    Time step:   711    Groundwater-Flow Eqn.
 Solving:  Stress period:     2    Time step:   712    Groundwater-Flow Eqn.
 Solving:  Stress period:     2    Time step:   713    Groundwater-Flow Eqn.
 Solving:  Stress period:     2    Time step:   714    Groundwater-Flow Eqn.
 Solving:  Stress period:     2    Time step:   715    Groundwater-Flow Eqn.
 Solving:  Stress period:     2    Time step:   716    Groundwater-Flow Eqn.
 Solving:  Stress period:     2    Time step:   717    Groundwater-Flow Eqn.
 Solving:  Stress period:     2    Time step:   718    Groundwater-Flow Eqn.
 Solving:  Stress period:     2    Time step:   719    Groundwater-Flow Eqn.
 Solving:  Stress period:     2    Time step:   720    Groundwater-Flow Eqn.
 Solving:  Stress period:     2    Time step:   721    Groundwater-Flow Eqn.
 Solving:  Stress period:     2    Time step:   722    Groundwater-Flow Eqn.
 Solving:  Stress period:     2    Time step:   723    Groundwater-Flow Eqn.
 Solving:  Stress period:     2    Time step:   724    Groundwater-Flow Eqn.
 Solving:  Stress period:     2    Time step:   725    Groundwater-Flow Eqn.
 Solving:  Stress period:     2    Time step:   726    Groundwater-Flow Eqn.
 Solving:  Stress period:     2    Time step:   727    Groundwater-Flow Eqn.
 Solving:  Stress period:     2    Time step:   728    Groundwater-Flow Eqn.
 Solving:  Stress period:     2    Time step:   729    Groundwater-Flow Eqn.
 Solving:  Stress period:     2    Time step:   730    Groundwater-Flow Eqn.
 Solving:  Stress period:     2    Time step:   731    Groundwater-Flow Eqn.
 Solving:  Stress period:     2    Time step:   732    Groundwater-Flow Eqn.
 Solving:  Stress period:     2    Time step:   733    Groundwater-Flow Eqn.
 Solving:  Stress period:     2    Time step:   734    Groundwater-Flow Eqn.
 Solving:  Stress period:     2    Time step:   735    Groundwater-Flow Eqn.
 Solving:  Stress period:     2    Time step:   736    Groundwater-Flow Eqn.
 Solving:  Stress period:     2    Time step:   737    Groundwater-Flow Eqn.
 Solving:  Stress period:     2    Time step:   738    Groundwater-Flow Eqn.
 Solving:  Stress period:     2    Time step:   739    Groundwater-Flow Eqn.
 Solving:  Stress period:     2    Time step:   740    Groundwater-Flow Eqn.
 Solving:  Stress period:     2    Time step:   741    Groundwater-Flow Eqn.
 Solving:  Stress period:     2    Time step:   742    Groundwater-Flow Eqn.
 Solving:  Stress period:     2    Time step:   743    Groundwater-Flow Eqn.
 Solving:  Stress period:     2    Time step:   744    Groundwater-Flow Eqn.
 Solving:  Stress period:     2    Time step:   745    Groundwater-Flow Eqn.
 Solving:  Stress period:     2    Time step:   746    Groundwater-Flow Eqn.
 Solving:  Stress period:     2    Time step:   747    Groundwater-Flow Eqn.
 Solving:  Stress period:     2    Time step:   748    Groundwater-Flow Eqn.
 Solving:  Stress period:     2    Time step:   749    Groundwater-Flow Eqn.
 Solving:  Stress period:     2    Time step:   750    Groundwater-Flow Eqn.
 Solving:  Stress period:     2    Time step:   751    Groundwater-Flow Eqn.
 Solving:  Stress period:     2    Time step:   752    Groundwater-Flow Eqn.
 Solving:  Stress period:     2    Time step:   753    Groundwater-Flow Eqn.
 Solving:  Stress period:     2    Time step:   754    Groundwater-Flow Eqn.
 Solving:  Stress period:     2    Time step:   755    Groundwater-Flow Eqn.
 Solving:  Stress period:     2    Time step:   756    Groundwater-Flow Eqn.
 Solving:  Stress period:     2    Time step:   757    Groundwater-Flow Eqn.
 Solving:  Stress period:     2    Time step:   758    Groundwater-Flow Eqn.
 Solving:  Stress period:     2    Time step:   759    Groundwater-Flow Eqn.
 Solving:  Stress period:     2    Time step:   760    Groundwater-Flow Eqn.
 Solving:  Stress period:     2    Time step:   761    Groundwater-Flow Eqn.
 Solving:  Stress period:     2    Time step:   762    Groundwater-Flow Eqn.
 Solving:  Stress period:     2    Time step:   763    Groundwater-Flow Eqn.
 Solving:  Stress period:     2    Time step:   764    Groundwater-Flow Eqn.
 Solving:  Stress period:     2    Time step:   765    Groundwater-Flow Eqn.
 Solving:  Stress period:     2    Time step:   766    Groundwater-Flow Eqn.
 Solving:  Stress period:     2    Time step:   767    Groundwater-Flow Eqn.
 Solving:  Stress period:     2    Time step:   768    Groundwater-Flow Eqn.
 Solving:  Stress period:     2    Time step:   769    Groundwater-Flow Eqn.
 Solving:  Stress period:     2    Time step:   770    Groundwater-Flow Eqn.
 Solving:  Stress period:     2    Time step:   771    Groundwater-Flow Eqn.
 Solving:  Stress period:     2    Time step:   772    Groundwater-Flow Eqn.
 Solving:  Stress period:     2    Time step:   773    Groundwater-Flow Eqn.
 Solving:  Stress period:     2    Time step:   774    Groundwater-Flow Eqn.
 Solving:  Stress period:     2    Time step:   775    Groundwater-Flow Eqn.
 Solving:  Stress period:     2    Time step:   776    Groundwater-Flow Eqn.
 Solving:  Stress period:     2    Time step:   777    Groundwater-Flow Eqn.
 Solving:  Stress period:     2    Time step:   778    Groundwater-Flow Eqn.
 Solving:  Stress period:     2    Time step:   779    Groundwater-Flow Eqn.
 Solving:  Stress period:     2    Time step:   780    Groundwater-Flow Eqn.
 Solving:  Stress period:     2    Time step:   781    Groundwater-Flow Eqn.
 Solving:  Stress period:     2    Time step:   782    Groundwater-Flow Eqn.
 Solving:  Stress period:     2    Time step:   783    Groundwater-Flow Eqn.
 Solving:  Stress period:     2    Time step:   784    Groundwater-Flow Eqn.
 Solving:  Stress period:     2    Time step:   785    Groundwater-Flow Eqn.
 Solving:  Stress period:     2    Time step:   786    Groundwater-Flow Eqn.
 Solving:  Stress period:     2    Time step:   787    Groundwater-Flow Eqn.
 Solving:  Stress period:     2    Time step:   788    Groundwater-Flow Eqn.
 Solving:  Stress period:     2    Time step:   789    Groundwater-Flow Eqn.
 Solving:  Stress period:     2    Time step:   790    Groundwater-Flow Eqn.
 Solving:  Stress period:     2    Time step:   791    Groundwater-Flow Eqn.
 Solving:  Stress period:     2    Time step:   792    Groundwater-Flow Eqn.
 Solving:  Stress period:     2    Time step:   793    Groundwater-Flow Eqn.
 Solving:  Stress period:     2    Time step:   794    Groundwater-Flow Eqn.
 Solving:  Stress period:     2    Time step:   795    Groundwater-Flow Eqn.
 Solving:  Stress period:     2    Time step:   796    Groundwater-Flow Eqn.
 Solving:  Stress period:     2    Time step:   797    Groundwater-Flow Eqn.
 Solving:  Stress period:     2    Time step:   798    Groundwater-Flow Eqn.
 Solving:  Stress period:     2    Time step:   799    Groundwater-Flow Eqn.
 Solving:  Stress period:     2    Time step:   800    Groundwater-Flow Eqn.
 Solving:  Stress period:     2    Time step:   801    Groundwater-Flow Eqn.
 Solving:  Stress period:     2    Time step:   802    Groundwater-Flow Eqn.
 Solving:  Stress period:     2    Time step:   803    Groundwater-Flow Eqn.
 Solving:  Stress period:     2    Time step:   804    Groundwater-Flow Eqn.
 Solving:  Stress period:     2    Time step:   805    Groundwater-Flow Eqn.
 Solving:  Stress period:     2    Time step:   806    Groundwater-Flow Eqn.
 Solving:  Stress period:     2    Time step:   807    Groundwater-Flow Eqn.
 Solving:  Stress period:     2    Time step:   808    Groundwater-Flow Eqn.
 Solving:  Stress period:     2    Time step:   809    Groundwater-Flow Eqn.
 Solving:  Stress period:     2    Time step:   810    Groundwater-Flow Eqn.
 Solving:  Stress period:     2    Time step:   811    Groundwater-Flow Eqn.
 Solving:  Stress period:     2    Time step:   812    Groundwater-Flow Eqn.
 Solving:  Stress period:     2    Time step:   813    Groundwater-Flow Eqn.
 Solving:  Stress period:     2    Time step:   814    Groundwater-Flow Eqn.
 Solving:  Stress period:     2    Time step:   815    Groundwater-Flow Eqn.
 Solving:  Stress period:     2    Time step:   816    Groundwater-Flow Eqn.
 Solving:  Stress period:     2    Time step:   817    Groundwater-Flow Eqn.
 Solving:  Stress period:     2    Time step:   818    Groundwater-Flow Eqn.
 Solving:  Stress period:     2    Time step:   819    Groundwater-Flow Eqn.
 Solving:  Stress period:     2    Time step:   820    Groundwater-Flow Eqn.
 Solving:  Stress period:     2    Time step:   821    Groundwater-Flow Eqn.
 Solving:  Stress period:     2    Time step:   822    Groundwater-Flow Eqn.
 Solving:  Stress period:     2    Time step:   823    Groundwater-Flow Eqn.
 Solving:  Stress period:     2    Time step:   824    Groundwater-Flow Eqn.
 Solving:  Stress period:     2    Time step:   825    Groundwater-Flow Eqn.
 Solving:  Stress period:     2    Time step:   826    Groundwater-Flow Eqn.
 Solving:  Stress period:     2    Time step:   827    Groundwater-Flow Eqn.
 Solving:  Stress period:     2    Time step:   828    Groundwater-Flow Eqn.
 Solving:  Stress period:     2    Time step:   829    Groundwater-Flow Eqn.
 Solving:  Stress period:     2    Time step:   830    Groundwater-Flow Eqn.
 Solving:  Stress period:     2    Time step:   831    Groundwater-Flow Eqn.
 Solving:  Stress period:     2    Time step:   832    Groundwater-Flow Eqn.
 Solving:  Stress period:     2    Time step:   833    Groundwater-Flow Eqn.
 Solving:  Stress period:     2    Time step:   834    Groundwater-Flow Eqn.
 Solving:  Stress period:     2    Time step:   835    Groundwater-Flow Eqn.
 Solving:  Stress period:     2    Time step:   836    Groundwater-Flow Eqn.
 Solving:  Stress period:     2    Time step:   837    Groundwater-Flow Eqn.
 Solving:  Stress period:     2    Time step:   838    Groundwater-Flow Eqn.
 Solving:  Stress period:     2    Time step:   839    Groundwater-Flow Eqn.
 Solving:  Stress period:     2    Time step:   840    Groundwater-Flow Eqn.
 Solving:  Stress period:     2    Time step:   841    Groundwater-Flow Eqn.
 Solving:  Stress period:     2    Time step:   842    Groundwater-Flow Eqn.
 Solving:  Stress period:     2    Time step:   843    Groundwater-Flow Eqn.
 Solving:  Stress period:     2    Time step:   844    Groundwater-Flow Eqn.
 Solving:  Stress period:     2    Time step:   845    Groundwater-Flow Eqn.
 Solving:  Stress period:     2    Time step:   846    Groundwater-Flow Eqn.
 Solving:  Stress period:     2    Time step:   847    Groundwater-Flow Eqn.
 Solving:  Stress period:     2    Time step:   848    Groundwater-Flow Eqn.
 Solving:  Stress period:     2    Time step:   849    Groundwater-Flow Eqn.
 Solving:  Stress period:     2    Time step:   850    Groundwater-Flow Eqn.
 Solving:  Stress period:     2    Time step:   851    Groundwater-Flow Eqn.
 Solving:  Stress period:     2    Time step:   852    Groundwater-Flow Eqn.
 Solving:  Stress period:     2    Time step:   853    Groundwater-Flow Eqn.
 Solving:  Stress period:     2    Time step:   854    Groundwater-Flow Eqn.
 Solving:  Stress period:     2    Time step:   855    Groundwater-Flow Eqn.
 Solving:  Stress period:     2    Time step:   856    Groundwater-Flow Eqn.
 Solving:  Stress period:     2    Time step:   857    Groundwater-Flow Eqn.
 Solving:  Stress period:     2    Time step:   858    Groundwater-Flow Eqn.
 Solving:  Stress period:     2    Time step:   859    Groundwater-Flow Eqn.
 Solving:  Stress period:     2    Time step:   860    Groundwater-Flow Eqn.
 Solving:  Stress period:     2    Time step:   861    Groundwater-Flow Eqn.
 Solving:  Stress period:     2    Time step:   862    Groundwater-Flow Eqn.
 Solving:  Stress period:     2    Time step:   863    Groundwater-Flow Eqn.
 Solving:  Stress period:     2    Time step:   864    Groundwater-Flow Eqn.
 Solving:  Stress period:     2    Time step:   865    Groundwater-Flow Eqn.
 Solving:  Stress period:     2    Time step:   866    Groundwater-Flow Eqn.
 Solving:  Stress period:     2    Time step:   867    Groundwater-Flow Eqn.
 Solving:  Stress period:     2    Time step:   868    Groundwater-Flow Eqn.
 Solving:  Stress period:     2    Time step:   869    Groundwater-Flow Eqn.
 Solving:  Stress period:     2    Time step:   870    Groundwater-Flow Eqn.
 Solving:  Stress period:     2    Time step:   871    Groundwater-Flow Eqn.
 Solving:  Stress period:     2    Time step:   872    Groundwater-Flow Eqn.
 Solving:  Stress period:     2    Time step:   873    Groundwater-Flow Eqn.
 Solving:  Stress period:     2    Time step:   874    Groundwater-Flow Eqn.
 Solving:  Stress period:     2    Time step:   875    Groundwater-Flow Eqn.
 Solving:  Stress period:     2    Time step:   876    Groundwater-Flow Eqn.
 Solving:  Stress period:     2    Time step:   877    Groundwater-Flow Eqn.
 Solving:  Stress period:     2    Time step:   878    Groundwater-Flow Eqn.
 Solving:  Stress period:     2    Time step:   879    Groundwater-Flow Eqn.
 Solving:  Stress period:     2    Time step:   880    Groundwater-Flow Eqn.
 Solving:  Stress period:     2    Time step:   881    Groundwater-Flow Eqn.
 Solving:  Stress period:     2    Time step:   882    Groundwater-Flow Eqn.
 Solving:  Stress period:     2    Time step:   883    Groundwater-Flow Eqn.
 Solving:  Stress period:     2    Time step:   884    Groundwater-Flow Eqn.
 Solving:  Stress period:     2    Time step:   885    Groundwater-Flow Eqn.
 Solving:  Stress period:     2    Time step:   886    Groundwater-Flow Eqn.
 Solving:  Stress period:     2    Time step:   887    Groundwater-Flow Eqn.
 Solving:  Stress period:     2    Time step:   888    Groundwater-Flow Eqn.
 Solving:  Stress period:     2    Time step:   889    Groundwater-Flow Eqn.
 Solving:  Stress period:     2    Time step:   890    Groundwater-Flow Eqn.
 Solving:  Stress period:     2    Time step:   891    Groundwater-Flow Eqn.
 Solving:  Stress period:     2    Time step:   892    Groundwater-Flow Eqn.
 Solving:  Stress period:     2    Time step:   893    Groundwater-Flow Eqn.
 Solving:  Stress period:     2    Time step:   894    Groundwater-Flow Eqn.
 Solving:  Stress period:     2    Time step:   895    Groundwater-Flow Eqn.
 Solving:  Stress period:     2    Time step:   896    Groundwater-Flow Eqn.
 Solving:  Stress period:     2    Time step:   897    Groundwater-Flow Eqn.
 Solving:  Stress period:     2    Time step:   898    Groundwater-Flow Eqn.
 Solving:  Stress period:     2    Time step:   899    Groundwater-Flow Eqn.
 Solving:  Stress period:     2    Time step:   900    Groundwater-Flow Eqn.
 Solving:  Stress period:     2    Time step:   901    Groundwater-Flow Eqn.
 Solving:  Stress period:     2    Time step:   902    Groundwater-Flow Eqn.
 Solving:  Stress period:     2    Time step:   903    Groundwater-Flow Eqn.
 Solving:  Stress period:     2    Time step:   904    Groundwater-Flow Eqn.
 Solving:  Stress period:     2    Time step:   905    Groundwater-Flow Eqn.
 Solving:  Stress period:     2    Time step:   906    Groundwater-Flow Eqn.
 Solving:  Stress period:     2    Time step:   907    Groundwater-Flow Eqn.
 Solving:  Stress period:     2    Time step:   908    Groundwater-Flow Eqn.
 Solving:  Stress period:     2    Time step:   909    Groundwater-Flow Eqn.
 Solving:  Stress period:     2    Time step:   910    Groundwater-Flow Eqn.
 Solving:  Stress period:     2    Time step:   911    Groundwater-Flow Eqn.
 Solving:  Stress period:     2    Time step:   912    Groundwater-Flow Eqn.
 Solving:  Stress period:     2    Time step:   913    Groundwater-Flow Eqn.
 Solving:  Stress period:     2    Time step:   914    Groundwater-Flow Eqn.
 Solving:  Stress period:     2    Time step:   915    Groundwater-Flow Eqn.
 Solving:  Stress period:     2    Time step:   916    Groundwater-Flow Eqn.
 Solving:  Stress period:     2    Time step:   917    Groundwater-Flow Eqn.
 Solving:  Stress period:     2    Time step:   918    Groundwater-Flow Eqn.
 Solving:  Stress period:     2    Time step:   919    Groundwater-Flow Eqn.
 Solving:  Stress period:     2    Time step:   920    Groundwater-Flow Eqn.
 Solving:  Stress period:     2    Time step:   921    Groundwater-Flow Eqn.
 Solving:  Stress period:     2    Time step:   922    Groundwater-Flow Eqn.
 Solving:  Stress period:     2    Time step:   923    Groundwater-Flow Eqn.
 Solving:  Stress period:     2    Time step:   924    Groundwater-Flow Eqn.
 Solving:  Stress period:     2    Time step:   925    Groundwater-Flow Eqn.
 Solving:  Stress period:     2    Time step:   926    Groundwater-Flow Eqn.
 Solving:  Stress period:     2    Time step:   927    Groundwater-Flow Eqn.
 Solving:  Stress period:     2    Time step:   928    Groundwater-Flow Eqn.
 Solving:  Stress period:     2    Time step:   929    Groundwater-Flow Eqn.
 Solving:  Stress period:     2    Time step:   930    Groundwater-Flow Eqn.
 Solving:  Stress period:     2    Time step:   931    Groundwater-Flow Eqn.
 Solving:  Stress period:     2    Time step:   932    Groundwater-Flow Eqn.
 Solving:  Stress period:     2    Time step:   933    Groundwater-Flow Eqn.
 Solving:  Stress period:     2    Time step:   934    Groundwater-Flow Eqn.
 Solving:  Stress period:     2    Time step:   935    Groundwater-Flow Eqn.
 Solving:  Stress period:     2    Time step:   936    Groundwater-Flow Eqn.
 Solving:  Stress period:     2    Time step:   937    Groundwater-Flow Eqn.
 Solving:  Stress period:     2    Time step:   938    Groundwater-Flow Eqn.
 Solving:  Stress period:     2    Time step:   939    Groundwater-Flow Eqn.
 Solving:  Stress period:     2    Time step:   940    Groundwater-Flow Eqn.
 Solving:  Stress period:     2    Time step:   941    Groundwater-Flow Eqn.
 Solving:  Stress period:     2    Time step:   942    Groundwater-Flow Eqn.
 Solving:  Stress period:     2    Time step:   943    Groundwater-Flow Eqn.
 Solving:  Stress period:     2    Time step:   944    Groundwater-Flow Eqn.
 Solving:  Stress period:     2    Time step:   945    Groundwater-Flow Eqn.
 Solving:  Stress period:     2    Time step:   946    Groundwater-Flow Eqn.
 Solving:  Stress period:     2    Time step:   947    Groundwater-Flow Eqn.
 Solving:  Stress period:     2    Time step:   948    Groundwater-Flow Eqn.
 Solving:  Stress period:     2    Time step:   949    Groundwater-Flow Eqn.
 Solving:  Stress period:     2    Time step:   950    Groundwater-Flow Eqn.
 Solving:  Stress period:     2    Time step:   951    Groundwater-Flow Eqn.
 Solving:  Stress period:     2    Time step:   952    Groundwater-Flow Eqn.
 Solving:  Stress period:     2    Time step:   953    Groundwater-Flow Eqn.
 Solving:  Stress period:     2    Time step:   954    Groundwater-Flow Eqn.
 Solving:  Stress period:     2    Time step:   955    Groundwater-Flow Eqn.
 Solving:  Stress period:     2    Time step:   956    Groundwater-Flow Eqn.
 Solving:  Stress period:     2    Time step:   957    Groundwater-Flow Eqn.
 Solving:  Stress period:     2    Time step:   958    Groundwater-Flow Eqn.
 Solving:  Stress period:     2    Time step:   959    Groundwater-Flow Eqn.
 Solving:  Stress period:     2    Time step:   960    Groundwater-Flow Eqn.
 Solving:  Stress period:     2    Time step:   961    Groundwater-Flow Eqn.
 Solving:  Stress period:     2    Time step:   962    Groundwater-Flow Eqn.
 Solving:  Stress period:     2    Time step:   963    Groundwater-Flow Eqn.
 Solving:  Stress period:     2    Time step:   964    Groundwater-Flow Eqn.
 Solving:  Stress period:     2    Time step:   965    Groundwater-Flow Eqn.
 Solving:  Stress period:     2    Time step:   966    Groundwater-Flow Eqn.
 Solving:  Stress period:     2    Time step:   967    Groundwater-Flow Eqn.
 Solving:  Stress period:     2    Time step:   968    Groundwater-Flow Eqn.
 Solving:  Stress period:     2    Time step:   969    Groundwater-Flow Eqn.
 Solving:  Stress period:     2    Time step:   970    Groundwater-Flow Eqn.
 Solving:  Stress period:     2    Time step:   971    Groundwater-Flow Eqn.
 Solving:  Stress period:     2    Time step:   972    Groundwater-Flow Eqn.
 Solving:  Stress period:     2    Time step:   973    Groundwater-Flow Eqn.
 Solving:  Stress period:     2    Time step:   974    Groundwater-Flow Eqn.
 Solving:  Stress period:     2    Time step:   975    Groundwater-Flow Eqn.
 Solving:  Stress period:     2    Time step:   976    Groundwater-Flow Eqn.
 Solving:  Stress period:     2    Time step:   977    Groundwater-Flow Eqn.
 Solving:  Stress period:     2    Time step:   978    Groundwater-Flow Eqn.
 Solving:  Stress period:     2    Time step:   979    Groundwater-Flow Eqn.
 Solving:  Stress period:     2    Time step:   980    Groundwater-Flow Eqn.
 Solving:  Stress period:     2    Time step:   981    Groundwater-Flow Eqn.
 Solving:  Stress period:     2    Time step:   982    Groundwater-Flow Eqn.
 Solving:  Stress period:     2    Time step:   983    Groundwater-Flow Eqn.
 Solving:  Stress period:     2    Time step:   984    Groundwater-Flow Eqn.
 Solving:  Stress period:     2    Time step:   985    Groundwater-Flow Eqn.
 Solving:  Stress period:     2    Time step:   986    Groundwater-Flow Eqn.
 Solving:  Stress period:     2    Time step:   987    Groundwater-Flow Eqn.
 Solving:  Stress period:     2    Time step:   988    Groundwater-Flow Eqn.
 Solving:  Stress period:     2    Time step:   989    Groundwater-Flow Eqn.
 Solving:  Stress period:     2    Time step:   990    Groundwater-Flow Eqn.
 Solving:  Stress period:     2    Time step:   991    Groundwater-Flow Eqn.
 Solving:  Stress period:     2    Time step:   992    Groundwater-Flow Eqn.
 Solving:  Stress period:     2    Time step:   993    Groundwater-Flow Eqn.
 Solving:  Stress period:     2    Time step:   994    Groundwater-Flow Eqn.
 Solving:  Stress period:     2    Time step:   995    Groundwater-Flow Eqn.
 Solving:  Stress period:     2    Time step:   996    Groundwater-Flow Eqn.
 Solving:  Stress period:     2    Time step:   997    Groundwater-Flow Eqn.
 Solving:  Stress period:     2    Time step:   998    Groundwater-Flow Eqn.
 Solving:  Stress period:     2    Time step:   999    Groundwater-Flow Eqn.
 Solving:  Stress period:     2    Time step:  1000    Groundwater-Flow Eqn.
 Solving:  Stress period:     2    Time step:  1001    Groundwater-Flow Eqn.
 Solving:  Stress period:     2    Time step:  1002    Groundwater-Flow Eqn.
 Solving:  Stress period:     2    Time step:  1003    Groundwater-Flow Eqn.
 Solving:  Stress period:     2    Time step:  1004    Groundwater-Flow Eqn.
 Solving:  Stress period:     2    Time step:  1005    Groundwater-Flow Eqn.
 Solving:  Stress period:     2    Time step:  1006    Groundwater-Flow Eqn.
 Solving:  Stress period:     2    Time step:  1007    Groundwater-Flow Eqn.
 Solving:  Stress period:     2    Time step:  1008    Groundwater-Flow Eqn.
 Solving:  Stress period:     2    Time step:  1009    Groundwater-Flow Eqn.
 Solving:  Stress period:     2    Time step:  1010    Groundwater-Flow Eqn.
 Solving:  Stress period:     2    Time step:  1011    Groundwater-Flow Eqn.
 Solving:  Stress period:     2    Time step:  1012    Groundwater-Flow Eqn.
 Solving:  Stress period:     2    Time step:  1013    Groundwater-Flow Eqn.
 Solving:  Stress period:     2    Time step:  1014    Groundwater-Flow Eqn.
 Solving:  Stress period:     2    Time step:  1015    Groundwater-Flow Eqn.
 Solving:  Stress period:     2    Time step:  1016    Groundwater-Flow Eqn.
 Solving:  Stress period:     2    Time step:  1017    Groundwater-Flow Eqn.
 Solving:  Stress period:     2    Time step:  1018    Groundwater-Flow Eqn.
 Solving:  Stress period:     2    Time step:  1019    Groundwater-Flow Eqn.
 Solving:  Stress period:     2    Time step:  1020    Groundwater-Flow Eqn.
 Solving:  Stress period:     2    Time step:  1021    Groundwater-Flow Eqn.
[...]
 Solving:  Stress period:     2    Time step:  5588    Groundwater-Flow Eqn.
 Solving:  Stress period:     2    Time step:  5589    Groundwater-Flow Eqn.
 Solving:  Stress period:     2    Time step:  5590    Groundwater-Flow Eqn.
 Solving:  Stress period:     2    Time step:  5591    Groundwater-Flow Eqn.
 Solving:  Stress period:     2    Time step:  5592    Groundwater-Flow Eqn.
 Solving:  Stress period:     2    Time step:  5593    Groundwater-Flow Eqn.
 Solving:  Stress period:     2    Time step:  5594    Groundwater-Flow Eqn.
 Solving:  Stress period:     2    Time step:  5595    Groundwater-Flow Eqn.
 Solving:  Stress period:     2    Time step:  5596    Groundwater-Flow Eqn.
 Solving:  Stress period:     2    Time step:  5597    Groundwater-Flow Eqn.
 Solving:  Stress period:     2    Time step:  5598    Groundwater-Flow Eqn.
 Solving:  Stress period:     2    Time step:  5599    Groundwater-Flow Eqn.
 Solving:  Stress period:     2    Time step:  5600    Groundwater-Flow Eqn.
 Solving:  Stress period:     2    Time step:  5601    Groundwater-Flow Eqn.
 Solving:  Stress period:     2    Time step:  5602    Groundwater-Flow Eqn.
 Solving:  Stress period:     2    Time step:  5603    Groundwater-Flow Eqn.
 Solving:  Stress period:     2    Time step:  5604    Groundwater-Flow Eqn.
 Solving:  Stress period:     2    Time step:  5605    Groundwater-Flow Eqn.
 Solving:  Stress period:     2    Time step:  5606    Groundwater-Flow Eqn.
 Solving:  Stress period:     2    Time step:  5607    Groundwater-Flow Eqn.
 Solving:  Stress period:     2    Time step:  5608    Groundwater-Flow Eqn.
 Solving:  Stress period:     2    Time step:  5609    Groundwater-Flow Eqn.
 Solving:  Stress period:     2    Time step:  5610    Groundwater-Flow Eqn.
 Solving:  Stress period:     2    Time step:  5611    Groundwater-Flow Eqn.
 Solving:  Stress period:     2    Time step:  5612    Groundwater-Flow Eqn.
 Solving:  Stress period:     2    Time step:  5613    Groundwater-Flow Eqn.
 Solving:  Stress period:     2    Time step:  5614    Groundwater-Flow Eqn.
 Solving:  Stress period:     2    Time step:  5615    Groundwater-Flow Eqn.
 Solving:  Stress period:     2    Time step:  5616    Groundwater-Flow Eqn.
 Solving:  Stress period:     2    Time step:  5617    Groundwater-Flow Eqn.
 Solving:  Stress period:     2    Time step:  5618    Groundwater-Flow Eqn.
 Solving:  Stress period:     2    Time step:  5619    Groundwater-Flow Eqn.
 Solving:  Stress period:     2    Time step:  5620    Groundwater-Flow Eqn.
 Solving:  Stress period:     2    Time step:  5621    Groundwater-Flow Eqn.
 Solving:  Stress period:     2    Time step:  5622    Groundwater-Flow Eqn.
 Solving:  Stress period:     2    Time step:  5623    Groundwater-Flow Eqn.
 Solving:  Stress period:     2    Time step:  5624    Groundwater-Flow Eqn.
 Solving:  Stress period:     2    Time step:  5625    Groundwater-Flow Eqn.
 Solving:  Stress period:     2    Time step:  5626    Groundwater-Flow Eqn.
 Solving:  Stress period:     2    Time step:  5627    Groundwater-Flow Eqn.
 Solving:  Stress period:     2    Time step:  5628    Groundwater-Flow Eqn.
 Solving:  Stress period:     2    Time step:  5629    Groundwater-Flow Eqn.
 Solving:  Stress period:     2    Time step:  5630    Groundwater-Flow Eqn.
 Solving:  Stress period:     2    Time step:  5631    Groundwater-Flow Eqn.
 Solving:  Stress period:     2    Time step:  5632    Groundwater-Flow Eqn.
 Solving:  Stress period:     2    Time step:  5633    Groundwater-Flow Eqn.
 Solving:  Stress period:     2    Time step:  5634    Groundwater-Flow Eqn.
 Solving:  Stress period:     2    Time step:  5635    Groundwater-Flow Eqn.
 Solving:  Stress period:     2    Time step:  5636    Groundwater-Flow Eqn.
 Solving:  Stress period:     2    Time step:  5637    Groundwater-Flow Eqn.
 Solving:  Stress period:     2    Time step:  5638    Groundwater-Flow Eqn.
 Solving:  Stress period:     2    Time step:  5639    Groundwater-Flow Eqn.
 Solving:  Stress period:     2    Time step:  5640    Groundwater-Flow Eqn.
 Solving:  Stress period:     2    Time step:  5641    Groundwater-Flow Eqn.
 Solving:  Stress period:     2    Time step:  5642    Groundwater-Flow Eqn.
 Solving:  Stress period:     2    Time step:  5643    Groundwater-Flow Eqn.
 Solving:  Stress period:     2    Time step:  5644    Groundwater-Flow Eqn.
 Solving:  Stress period:     2    Time step:  5645    Groundwater-Flow Eqn.
 Solving:  Stress period:     2    Time step:  5646    Groundwater-Flow Eqn.
 Solving:  Stress period:     2    Time step:  5647    Groundwater-Flow Eqn.
 Solving:  Stress period:     2    Time step:  5648    Groundwater-Flow Eqn.
 Solving:  Stress period:     2    Time step:  5649    Groundwater-Flow Eqn.
 Solving:  Stress period:     2    Time step:  5650    Groundwater-Flow Eqn.
 Solving:  Stress period:     2    Time step:  5651    Groundwater-Flow Eqn.
 Solving:  Stress period:     2    Time step:  5652    Groundwater-Flow Eqn.
 Solving:  Stress period:     2    Time step:  5653    Groundwater-Flow Eqn.
 Solving:  Stress period:     2    Time step:  5654    Groundwater-Flow Eqn.
 Solving:  Stress period:     2    Time step:  5655    Groundwater-Flow Eqn.
 Solving:  Stress period:     2    Time step:  5656    Groundwater-Flow Eqn.
 Solving:  Stress period:     2    Time step:  5657    Groundwater-Flow Eqn.
 Solving:  Stress period:     2    Time step:  5658    Groundwater-Flow Eqn.
 Solving:  Stress period:     2    Time step:  5659    Groundwater-Flow Eqn.
 Solving:  Stress period:     2    Time step:  5660    Groundwater-Flow Eqn.
 Solving:  Stress period:     2    Time step:  5661    Groundwater-Flow Eqn.
 Solving:  Stress period:     2    Time step:  5662    Groundwater-Flow Eqn.
 Solving:  Stress period:     2    Time step:  5663    Groundwater-Flow Eqn.
 Solving:  Stress period:     2    Time step:  5664    Groundwater-Flow Eqn.
 Solving:  Stress period:     2    Time step:  5665    Groundwater-Flow Eqn.
 Solving:  Stress period:     2    Time step:  5666    Groundwater-Flow Eqn.
 Solving:  Stress period:     2    Time step:  5667    Groundwater-Flow Eqn.
 Solving:  Stress period:     2    Time step:  5668    Groundwater-Flow Eqn.
 Solving:  Stress period:     2    Time step:  5669    Groundwater-Flow Eqn.
 Solving:  Stress period:     2    Time step:  5670    Groundwater-Flow Eqn.
 Solving:  Stress period:     2    Time step:  5671    Groundwater-Flow Eqn.
 Solving:  Stress period:     2    Time step:  5672    Groundwater-Flow Eqn.
 Solving:  Stress period:     2    Time step:  5673    Groundwater-Flow Eqn.
 Solving:  Stress period:     2    Time step:  5674    Groundwater-Flow Eqn.
 Solving:  Stress period:     2    Time step:  5675    Groundwater-Flow Eqn.
 Solving:  Stress period:     2    Time step:  5676    Groundwater-Flow Eqn.
 Solving:  Stress period:     2    Time step:  5677    Groundwater-Flow Eqn.
 Solving:  Stress period:     2    Time step:  5678    Groundwater-Flow Eqn.
 Solving:  Stress period:     2    Time step:  5679    Groundwater-Flow Eqn.
 Solving:  Stress period:     2    Time step:  5680    Groundwater-Flow Eqn.
 Solving:  Stress period:     2    Time step:  5681    Groundwater-Flow Eqn.
 Solving:  Stress period:     2    Time step:  5682    Groundwater-Flow Eqn.
 Solving:  Stress period:     2    Time step:  5683    Groundwater-Flow Eqn.
 Solving:  Stress period:     2    Time step:  5684    Groundwater-Flow Eqn.
 Solving:  Stress period:     2    Time step:  5685    Groundwater-Flow Eqn.
 Solving:  Stress period:     2    Time step:  5686    Groundwater-Flow Eqn.
 Solving:  Stress period:     2    Time step:  5687    Groundwater-Flow Eqn.
 Solving:  Stress period:     2    Time step:  5688    Groundwater-Flow Eqn.
 Solving:  Stress period:     2    Time step:  5689    Groundwater-Flow Eqn.
 Solving:  Stress period:     2    Time step:  5690    Groundwater-Flow Eqn.
 Solving:  Stress period:     2    Time step:  5691    Groundwater-Flow Eqn.
 Solving:  Stress period:     2    Time step:  5692    Groundwater-Flow Eqn.
 Solving:  Stress period:     2    Time step:  5693    Groundwater-Flow Eqn.
 Solving:  Stress period:     2    Time step:  5694    Groundwater-Flow Eqn.
 Solving:  Stress period:     2    Time step:  5695    Groundwater-Flow Eqn.
 Solving:  Stress period:     2    Time step:  5696    Groundwater-Flow Eqn.
 Solving:  Stress period:     2    Time step:  5697    Groundwater-Flow Eqn.
 Solving:  Stress period:     2    Time step:  5698    Groundwater-Flow Eqn.
 Solving:  Stress period:     2    Time step:  5699    Groundwater-Flow Eqn.
 Solving:  Stress period:     2    Time step:  5700    Groundwater-Flow Eqn.
 Solving:  Stress period:     2    Time step:  5701    Groundwater-Flow Eqn.
 Solving:  Stress period:     2    Time step:  5702    Groundwater-Flow Eqn.
 Solving:  Stress period:     2    Time step:  5703    Groundwater-Flow Eqn.
 Solving:  Stress period:     2    Time step:  5704    Groundwater-Flow Eqn.
 Solving:  Stress period:     2    Time step:  5705    Groundwater-Flow Eqn.
 Solving:  Stress period:     2    Time step:  5706    Groundwater-Flow Eqn.
 Solving:  Stress period:     2    Time step:  5707    Groundwater-Flow Eqn.
 Solving:  Stress period:     2    Time step:  5708    Groundwater-Flow Eqn.
 Solving:  Stress period:     2    Time step:  5709    Groundwater-Flow Eqn.
 Solving:  Stress period:     2    Time step:  5710    Groundwater-Flow Eqn.
 Solving:  Stress period:     2    Time step:  5711    Groundwater-Flow Eqn.
 Solving:  Stress period:     2    Time step:  5712    Groundwater-Flow Eqn.
 Solving:  Stress period:     2    Time step:  5713    Groundwater-Flow Eqn.
 Solving:  Stress period:     2    Time step:  5714    Groundwater-Flow Eqn.
 Solving:  Stress period:     2    Time step:  5715    Groundwater-Flow Eqn.
 Solving:  Stress period:     2    Time step:  5716    Groundwater-Flow Eqn.
 Solving:  Stress period:     2    Time step:  5717    Groundwater-Flow Eqn.
 Solving:  Stress period:     2    Time step:  5718    Groundwater-Flow Eqn.
 Solving:  Stress period:     2    Time step:  5719    Groundwater-Flow Eqn.
 Solving:  Stress period:     2    Time step:  5720    Groundwater-Flow Eqn.
 Solving:  Stress period:     2    Time step:  5721    Groundwater-Flow Eqn.
 Solving:  Stress period:     2    Time step:  5722    Groundwater-Flow Eqn.
 Solving:  Stress period:     2    Time step:  5723    Groundwater-Flow Eqn.
 Solving:  Stress period:     2    Time step:  5724    Groundwater-Flow Eqn.
 Solving:  Stress period:     2    Time step:  5725    Groundwater-Flow Eqn.
 Solving:  Stress period:     2    Time step:  5726    Groundwater-Flow Eqn.
 Solving:  Stress period:     2    Time step:  5727    Groundwater-Flow Eqn.
 Solving:  Stress period:     2    Time step:  5728    Groundwater-Flow Eqn.
 Solving:  Stress period:     2    Time step:  5729    Groundwater-Flow Eqn.
 Solving:  Stress period:     2    Time step:  5730    Groundwater-Flow Eqn.
 Solving:  Stress period:     2    Time step:  5731    Groundwater-Flow Eqn.
 Solving:  Stress period:     2    Time step:  5732    Groundwater-Flow Eqn.
 Solving:  Stress period:     2    Time step:  5733    Groundwater-Flow Eqn.
 Solving:  Stress period:     2    Time step:  5734    Groundwater-Flow Eqn.
 Solving:  Stress period:     2    Time step:  5735    Groundwater-Flow Eqn.
 Solving:  Stress period:     2    Time step:  5736    Groundwater-Flow Eqn.
 Solving:  Stress period:     2    Time step:  5737    Groundwater-Flow Eqn.
 Solving:  Stress period:     2    Time step:  5738    Groundwater-Flow Eqn.
 Solving:  Stress period:     2    Time step:  5739    Groundwater-Flow Eqn.
 Solving:  Stress period:     2    Time step:  5740    Groundwater-Flow Eqn.
 Solving:  Stress period:     2    Time step:  5741    Groundwater-Flow Eqn.
 Solving:  Stress period:     2    Time step:  5742    Groundwater-Flow Eqn.
 Solving:  Stress period:     2    Time step:  5743    Groundwater-Flow Eqn.
 Solving:  Stress period:     2    Time step:  5744    Groundwater-Flow Eqn.
 Solving:  Stress period:     2    Time step:  5745    Groundwater-Flow Eqn.
 Solving:  Stress period:     2    Time step:  5746    Groundwater-Flow Eqn.
 Solving:  Stress period:     2    Time step:  5747    Groundwater-Flow Eqn.
 Solving:  Stress period:     2    Time step:  5748    Groundwater-Flow Eqn.
 Solving:  Stress period:     2    Time step:  5749    Groundwater-Flow Eqn.
 Solving:  Stress period:     2    Time step:  5750    Groundwater-Flow Eqn.
 Solving:  Stress period:     2    Time step:  5751    Groundwater-Flow Eqn.
 Solving:  Stress period:     2    Time step:  5752    Groundwater-Flow Eqn.
 Solving:  Stress period:     2    Time step:  5753    Groundwater-Flow Eqn.
 Solving:  Stress period:     2    Time step:  5754    Groundwater-Flow Eqn.
 Solving:  Stress period:     2    Time step:  5755    Groundwater-Flow Eqn.
 Solving:  Stress period:     2    Time step:  5756    Groundwater-Flow Eqn.
 Solving:  Stress period:     2    Time step:  5757    Groundwater-Flow Eqn.
 Solving:  Stress period:     2    Time step:  5758    Groundwater-Flow Eqn.
 Solving:  Stress period:     2    Time step:  5759    Groundwater-Flow Eqn.
 Solving:  Stress period:     2    Time step:  5760    Groundwater-Flow Eqn.
 Solving:  Stress period:     2    Time step:  5761    Groundwater-Flow Eqn.
 Solving:  Stress period:     2    Time step:  5762    Groundwater-Flow Eqn.
 Solving:  Stress period:     2    Time step:  5763    Groundwater-Flow Eqn.
 Solving:  Stress period:     2    Time step:  5764    Groundwater-Flow Eqn.
 Solving:  Stress period:     2    Time step:  5765    Groundwater-Flow Eqn.
 Solving:  Stress period:     2    Time step:  5766    Groundwater-Flow Eqn.
 Solving:  Stress period:     2    Time step:  5767    Groundwater-Flow Eqn.
 Solving:  Stress period:     2    Time step:  5768    Groundwater-Flow Eqn.
 Solving:  Stress period:     2    Time step:  5769    Groundwater-Flow Eqn.
 Solving:  Stress period:     2    Time step:  5770    Groundwater-Flow Eqn.
 Solving:  Stress period:     2    Time step:  5771    Groundwater-Flow Eqn.
 Solving:  Stress period:     2    Time step:  5772    Groundwater-Flow Eqn.
 Solving:  Stress period:     2    Time step:  5773    Groundwater-Flow Eqn.
 Solving:  Stress period:     2    Time step:  5774    Groundwater-Flow Eqn.
 Solving:  Stress period:     2    Time step:  5775    Groundwater-Flow Eqn.
 Solving:  Stress period:     2    Time step:  5776    Groundwater-Flow Eqn.
 Solving:  Stress period:     2    Time step:  5777    Groundwater-Flow Eqn.
 Solving:  Stress period:     2    Time step:  5778    Groundwater-Flow Eqn.
 Solving:  Stress period:     2    Time step:  5779    Groundwater-Flow Eqn.
 Solving:  Stress period:     2    Time step:  5780    Groundwater-Flow Eqn.
 Solving:  Stress period:     2    Time step:  5781    Groundwater-Flow Eqn.
 Solving:  Stress period:     2    Time step:  5782    Groundwater-Flow Eqn.
 Solving:  Stress period:     2    Time step:  5783    Groundwater-Flow Eqn.
 Solving:  Stress period:     2    Time step:  5784    Groundwater-Flow Eqn.
 Solving:  Stress period:     2    Time step:  5785    Groundwater-Flow Eqn.
 Solving:  Stress period:     2    Time step:  5786    Groundwater-Flow Eqn.
 Solving:  Stress period:     2    Time step:  5787    Groundwater-Flow Eqn.
 Solving:  Stress period:     2    Time step:  5788    Groundwater-Flow Eqn.
 Solving:  Stress period:     2    Time step:  5789    Groundwater-Flow Eqn.
 Solving:  Stress period:     2    Time step:  5790    Groundwater-Flow Eqn.
 Solving:  Stress period:     2    Time step:  5791    Groundwater-Flow Eqn.
 Solving:  Stress period:     2    Time step:  5792    Groundwater-Flow Eqn.
 Solving:  Stress period:     2    Time step:  5793    Groundwater-Flow Eqn.
 Solving:  Stress period:     2    Time step:  5794    Groundwater-Flow Eqn.
 Solving:  Stress period:     2    Time step:  5795    Groundwater-Flow Eqn.
 Solving:  Stress period:     2    Time step:  5796    Groundwater-Flow Eqn.
 Solving:  Stress period:     2    Time step:  5797    Groundwater-Flow Eqn.
 Solving:  Stress period:     2    Time step:  5798    Groundwater-Flow Eqn.
 Solving:  Stress period:     2    Time step:  5799    Groundwater-Flow Eqn.
 Solving:  Stress period:     2    Time step:  5800    Groundwater-Flow Eqn.
 Solving:  Stress period:     2    Time step:  5801    Groundwater-Flow Eqn.
 Solving:  Stress period:     2    Time step:  5802    Groundwater-Flow Eqn.
 Solving:  Stress period:     2    Time step:  5803    Groundwater-Flow Eqn.
 Solving:  Stress period:     2    Time step:  5804    Groundwater-Flow Eqn.
 Solving:  Stress period:     2    Time step:  5805    Groundwater-Flow Eqn.
 Solving:  Stress period:     2    Time step:  5806    Groundwater-Flow Eqn.
 Solving:  Stress period:     2    Time step:  5807    Groundwater-Flow Eqn.
 Solving:  Stress period:     2    Time step:  5808    Groundwater-Flow Eqn.
 Solving:  Stress period:     2    Time step:  5809    Groundwater-Flow Eqn.
 Solving:  Stress period:     2    Time step:  5810    Groundwater-Flow Eqn.
 Solving:  Stress period:     2    Time step:  5811    Groundwater-Flow Eqn.
 Solving:  Stress period:     2    Time step:  5812    Groundwater-Flow Eqn.
 Solving:  Stress period:     2    Time step:  5813    Groundwater-Flow Eqn.
 Solving:  Stress period:     2    Time step:  5814    Groundwater-Flow Eqn.
 Solving:  Stress period:     2    Time step:  5815    Groundwater-Flow Eqn.
 Solving:  Stress period:     2    Time step:  5816    Groundwater-Flow Eqn.
 Solving:  Stress period:     2    Time step:  5817    Groundwater-Flow Eqn.
 Solving:  Stress period:     2    Time step:  5818    Groundwater-Flow Eqn.
 Solving:  Stress period:     2    Time step:  5819    Groundwater-Flow Eqn.
 Solving:  Stress period:     2    Time step:  5820    Groundwater-Flow Eqn.
 Solving:  Stress period:     2    Time step:  5821    Groundwater-Flow Eqn.
 Solving:  Stress period:     2    Time step:  5822    Groundwater-Flow Eqn.
 Solving:  Stress period:     2    Time step:  5823    Groundwater-Flow Eqn.
 Solving:  Stress period:     2    Time step:  5824    Groundwater-Flow Eqn.
 Solving:  Stress period:     2    Time step:  5825    Groundwater-Flow Eqn.
 Solving:  Stress period:     2    Time step:  5826    Groundwater-Flow Eqn.
 Solving:  Stress period:     2    Time step:  5827    Groundwater-Flow Eqn.
 Solving:  Stress period:     2    Time step:  5828    Groundwater-Flow Eqn.
 Solving:  Stress period:     2    Time step:  5829    Groundwater-Flow Eqn.
 Solving:  Stress period:     2    Time step:  5830    Groundwater-Flow Eqn.
 Solving:  Stress period:     2    Time step:  5831    Groundwater-Flow Eqn.
 Solving:  Stress period:     2    Time step:  5832    Groundwater-Flow Eqn.
 Solving:  Stress period:     2    Time step:  5833    Groundwater-Flow Eqn.
 Solving:  Stress period:     2    Time step:  5834    Groundwater-Flow Eqn.
 Solving:  Stress period:     2    Time step:  5835    Groundwater-Flow Eqn.
 Solving:  Stress period:     2    Time step:  5836    Groundwater-Flow Eqn.
 Solving:  Stress period:     2    Time step:  5837    Groundwater-Flow Eqn.
 Solving:  Stress period:     2    Time step:  5838    Groundwater-Flow Eqn.
 Solving:  Stress period:     2    Time step:  5839    Groundwater-Flow Eqn.
 Solving:  Stress period:     2    Time step:  5840    Groundwater-Flow Eqn.
 Solving:  Stress period:     2    Time step:  5841    Groundwater-Flow Eqn.
 Solving:  Stress period:     2    Time step:  5842    Groundwater-Flow Eqn.
 Solving:  Stress period:     2    Time step:  5843    Groundwater-Flow Eqn.
 Solving:  Stress period:     2    Time step:  5844    Groundwater-Flow Eqn.

 Run end date and time (yyyy/mm/dd hh:mm:ss): 2019/04/11 12:48:38
 Elapsed run time:  3 Minutes, 55.653 Seconds

Normal termination of simulation
