==========================================================================
Command line: 
..\..\..\bin\gsflow  .\modflow.control

number of command line words: 2

Executable: ..\..\..\bin\gsflow

==========================================================================
Control File: .\modflow.control
==========================================================================

                            MODFLOW-NWT-SWR1 
  U.S. GEOLOGICAL SURVEY MODULAR FINITE-DIFFERENCE GROUNDWATER-FLOW MODEL
                         WITH NEWTON FORMULATION
                         Version 1.3.0 06/01/2022
              BASED ON MODFLOW-2005 Version 1.12.0 02/03/2017
                      SWR1 Version 1.04.0 09/15/2016

 Run start date and time (yyyy/mm/dd hh:mm:ss): 2024/03/21 16:55:50

GSFLOW MODFLOW main             gsflow_modflow      2022-10-20
==============================================================
MODFLOW Packages
==============================================================
UZF-NWT Package                 gwf2uzf1_NWT        2022-10-18
SFR-NWT Package                 gwf2sfr7_NWT        2022-10-18
==============================================================

  

Steady state simulation successful, used 70 iterations
  

 Run end date and time (yyyy/mm/dd hh:mm:ss): 2024/03/21 16:58:44
 Elapsed run time: 2 Minutes, 53.793 Seconds

 Normal termination of simulation

