1
 SUMMARY VOLUMETRIC BUDGET FOR GSFLOW 
 DATE: 10 07 1980              CUMULATIVE TIME STEP:       7
 MODFLOW STRESS PERIOD      2     CURRENT TIME STEP:       7     ITERATIONS:       6

 -----------------------------------------------------------------------------------

   CUMULATIVE VOLUMES               L**3   RATES FOR THIS TIME STEP           L**3/T
   ------------------                      ------------------------

                                     IN                                         IN
                                     --                                         --
        PRECIPITATION =                            PRECIPITATION =                  
           STREAMFLOW =                               STREAMFLOW =                  
     GW BOUNDARY FLOW =                         GW BOUNDARY FLOW =                  


                                    OUT                                        OUT
                                    ---                                        ---
   EVAPOTRANSPIRATION =          63502.38     EVAPOTRANSPIRATION =           9679.51
           STREAMFLOW =          42957.63             STREAMFLOW =           6065.77
     GW BOUNDARY FLOW =           4541.44       GW BOUNDARY FLOW =            648.70

   INFLOWS - OUTFLOWS =        -111001.44     INFLOWS - OUTFLOWS =         -16393.99
             --------                                   --------

 TOTAL STORAGE CHANGE =        -110545.66         STORAGE CHANGE =         -16325.67
       --------------                             --------------
         LAND SURFACE =                             LAND SURFACE =                  
            SOIL ZONE =          47014.67              SOIL ZONE =           6016.91
     UNSATURATED ZONE =        -144777.37       UNSATURATED ZONE =         -20360.11
       SATURATED ZONE =         -12782.96         SATURATED ZONE =          -1982.46

 OVERALL BUDGET ERROR =           -455.78           BUDGET ERROR =            -68.32


  PERCENT DISCREPANCY =             -0.41    PERCENT DISCREPANCY =             -0.42



1
 SUMMARY VOLUMETRIC BUDGET FOR GSFLOW 
 DATE: 10 14 1980              CUMULATIVE TIME STEP:      14
 MODFLOW STRESS PERIOD      2     CURRENT TIME STEP:      14     ITERATIONS:       6

 -----------------------------------------------------------------------------------

   CUMULATIVE VOLUMES               L**3   RATES FOR THIS TIME STEP           L**3/T
   ------------------                      ------------------------

                                     IN                                         IN
                                     --                                         --
        PRECIPITATION =         650780.39          PRECIPITATION =         164754.68
           STREAMFLOW =                               STREAMFLOW =                  
     GW BOUNDARY FLOW =                         GW BOUNDARY FLOW =                  


                                    OUT                                        OUT
                                    ---                                        ---
   EVAPOTRANSPIRATION =         147519.26     EVAPOTRANSPIRATION =           7886.70
           STREAMFLOW =          92677.73             STREAMFLOW =           7494.70
     GW BOUNDARY FLOW =           9082.78       GW BOUNDARY FLOW =            648.89

   INFLOWS - OUTFLOWS =         401500.62     INFLOWS - OUTFLOWS =         148724.39
             --------                                   --------

 TOTAL STORAGE CHANGE =         402471.14         STORAGE CHANGE =         148798.38
       --------------                             --------------
         LAND SURFACE =         277680.20           LAND SURFACE =         136619.69
            SOIL ZONE =         436917.79              SOIL ZONE =          34196.55
     UNSATURATED ZONE =        -284452.37       UNSATURATED ZONE =         -19623.49
       SATURATED ZONE =         -27674.48         SATURATED ZONE =          -2394.36

 OVERALL BUDGET ERROR =           -970.52           BUDGET ERROR =            -74.00


  PERCENT DISCREPANCY =             -0.15    PERCENT DISCREPANCY =             -0.04



1
 SUMMARY VOLUMETRIC BUDGET FOR GSFLOW 
 DATE: 10 21 1980              CUMULATIVE TIME STEP:      21
 MODFLOW STRESS PERIOD      2     CURRENT TIME STEP:      21     ITERATIONS:       6

 -----------------------------------------------------------------------------------

   CUMULATIVE VOLUMES               L**3   RATES FOR THIS TIME STEP           L**3/T
   ------------------                      ------------------------

                                     IN                                         IN
                                     --                                         --
        PRECIPITATION =         733156.23          PRECIPITATION =                  
           STREAMFLOW =                               STREAMFLOW =                  
     GW BOUNDARY FLOW =                         GW BOUNDARY FLOW =                  


                                    OUT                                        OUT
                                    ---                                        ---
   EVAPOTRANSPIRATION =         373107.52     EVAPOTRANSPIRATION =          36446.04
           STREAMFLOW =         144890.95             STREAMFLOW =           7105.98
     GW BOUNDARY FLOW =          13624.56       GW BOUNDARY FLOW =            648.77

   INFLOWS - OUTFLOWS =         201533.20     INFLOWS - OUTFLOWS =         -44200.79
             --------                                   --------

 TOTAL STORAGE CHANGE =         203014.42         STORAGE CHANGE =         -44120.13
       --------------                             --------------
         LAND SURFACE =           2252.39           LAND SURFACE =          -3155.26
            SOIL ZONE =         665729.19              SOIL ZONE =         -19173.04
     UNSATURATED ZONE =        -418622.14       UNSATURATED ZONE =         -18801.02
       SATURATED ZONE =         -46345.02         SATURATED ZONE =          -2990.81

 OVERALL BUDGET ERROR =          -1481.22           BUDGET ERROR =            -80.66


  PERCENT DISCREPANCY =             -0.20    PERCENT DISCREPANCY =             -0.18



1
 SUMMARY VOLUMETRIC BUDGET FOR GSFLOW 
 DATE: 10 28 1980              CUMULATIVE TIME STEP:      28
 MODFLOW STRESS PERIOD      2     CURRENT TIME STEP:      28     ITERATIONS:       6

 -----------------------------------------------------------------------------------

   CUMULATIVE VOLUMES               L**3   RATES FOR THIS TIME STEP           L**3/T
   ------------------                      ------------------------

                                     IN                                         IN
                                     --                                         --
        PRECIPITATION =        1070899.96          PRECIPITATION =                  
           STREAMFLOW =                               STREAMFLOW =                  
     GW BOUNDARY FLOW =                         GW BOUNDARY FLOW =                  


                                    OUT                                        OUT
                                    ---                                        ---
   EVAPOTRANSPIRATION =         550295.54     EVAPOTRANSPIRATION =          23594.69
           STREAMFLOW =         199834.81             STREAMFLOW =           7989.32
     GW BOUNDARY FLOW =          18165.91       GW BOUNDARY FLOW =            648.81

   INFLOWS - OUTFLOWS =         302603.69     INFLOWS - OUTFLOWS =         -32232.82
             --------                                   --------

 TOTAL STORAGE CHANGE =         304656.54         STORAGE CHANGE =         -32145.86
       --------------                             --------------
         LAND SURFACE =          24622.16           LAND SURFACE =         -30947.62
            SOIL ZONE =         896176.61              SOIL ZONE =          20269.33
     UNSATURATED ZONE =        -547225.26       UNSATURATED ZONE =         -17994.12
       SATURATED ZONE =         -68916.98         SATURATED ZONE =          -3473.45

 OVERALL BUDGET ERROR =          -2052.84           BUDGET ERROR =            -86.95


  PERCENT DISCREPANCY =             -0.19    PERCENT DISCREPANCY =             -0.27



1
 SUMMARY VOLUMETRIC BUDGET FOR GSFLOW 
 DATE: 11 04 1980              CUMULATIVE TIME STEP:      35
 MODFLOW STRESS PERIOD      2     CURRENT TIME STEP:      35     ITERATIONS:       8

 -----------------------------------------------------------------------------------

   CUMULATIVE VOLUMES               L**3   RATES FOR THIS TIME STEP           L**3/T
   ------------------                      ------------------------

                                     IN                                         IN
                                     --                                         --
        PRECIPITATION =        1070899.96          PRECIPITATION =                  
           STREAMFLOW =                               STREAMFLOW =                  
     GW BOUNDARY FLOW =                         GW BOUNDARY FLOW =                  


                                    OUT                                        OUT
                                    ---                                        ---
   EVAPOTRANSPIRATION =         825644.49     EVAPOTRANSPIRATION =          34462.00
           STREAMFLOW =         252302.69             STREAMFLOW =           7018.30
     GW BOUNDARY FLOW =          22706.92       GW BOUNDARY FLOW =            648.64

   INFLOWS - OUTFLOWS =         -29754.13     INFLOWS - OUTFLOWS =         -42128.95
             --------                                   --------

 TOTAL STORAGE CHANGE =         -27211.19         STORAGE CHANGE =         -42066.93
       --------------                             --------------
         LAND SURFACE =                             LAND SURFACE =                  
            SOIL ZONE =         739545.74              SOIL ZONE =         -20540.94
     UNSATURATED ZONE =        -670653.07       UNSATURATED ZONE =         -17361.09
       SATURATED ZONE =         -96103.86         SATURATED ZONE =          -4164.90

 OVERALL BUDGET ERROR =          -2542.95           BUDGET ERROR =            -62.02


  PERCENT DISCREPANCY =             -0.23    PERCENT DISCREPANCY =             -0.15



1
 SUMMARY VOLUMETRIC BUDGET FOR GSFLOW 
 DATE: 11 11 1980              CUMULATIVE TIME STEP:      42
 MODFLOW STRESS PERIOD      2     CURRENT TIME STEP:      42     ITERATIONS:       7

 -----------------------------------------------------------------------------------

   CUMULATIVE VOLUMES               L**3   RATES FOR THIS TIME STEP           L**3/T
   ------------------                      ------------------------

                                     IN                                         IN
                                     --                                         --
        PRECIPITATION =        1573759.34          PRECIPITATION =         255182.10
           STREAMFLOW =                               STREAMFLOW =                  
     GW BOUNDARY FLOW =                         GW BOUNDARY FLOW =                  


                                    OUT                                        OUT
                                    ---                                        ---
   EVAPOTRANSPIRATION =        1024608.28     EVAPOTRANSPIRATION =          14644.17
           STREAMFLOW =         308279.05             STREAMFLOW =          10773.57
     GW BOUNDARY FLOW =          27247.64       GW BOUNDARY FLOW =            648.84

   INFLOWS - OUTFLOWS =         213624.37     INFLOWS - OUTFLOWS =         229115.52
             --------                                   --------

 TOTAL STORAGE CHANGE =         216713.02         STORAGE CHANGE =         229180.37
       --------------                             --------------
         LAND SURFACE =          78611.70           LAND SURFACE =          76658.21
            SOIL ZONE =        1053407.13              SOIL ZONE =         173145.66
     UNSATURATED ZONE =        -789255.25       UNSATURATED ZONE =         -16535.16
       SATURATED ZONE =        -126050.56         SATURATED ZONE =          -4088.35

 OVERALL BUDGET ERROR =          -3088.65           BUDGET ERROR =            -64.85


  PERCENT DISCREPANCY =             -0.20    PERCENT DISCREPANCY =             -0.03



1
 SUMMARY VOLUMETRIC BUDGET FOR GSFLOW 
 DATE: 11 18 1980              CUMULATIVE TIME STEP:      49
 MODFLOW STRESS PERIOD      2     CURRENT TIME STEP:      49     ITERATIONS:       7

 -----------------------------------------------------------------------------------

   CUMULATIVE VOLUMES               L**3   RATES FOR THIS TIME STEP           L**3/T
   ------------------                      ------------------------

                                     IN                                         IN
                                     --                                         --
        PRECIPITATION =        1573759.34          PRECIPITATION =                  
           STREAMFLOW =                               STREAMFLOW =                  
     GW BOUNDARY FLOW =                         GW BOUNDARY FLOW =                  


                                    OUT                                        OUT
                                    ---                                        ---
   EVAPOTRANSPIRATION =        1113099.70     EVAPOTRANSPIRATION =          16687.25
           STREAMFLOW =         371220.61             STREAMFLOW =           9364.84
     GW BOUNDARY FLOW =          31789.52       GW BOUNDARY FLOW =            648.86

   INFLOWS - OUTFLOWS =          57649.50     INFLOWS - OUTFLOWS =         -26700.96
             --------                                   --------

 TOTAL STORAGE CHANGE =          61346.27         STORAGE CHANGE =         -26624.96
       --------------                             --------------
         LAND SURFACE =           8650.47           LAND SURFACE =          -6201.94
            SOIL ZONE =        1114561.75              SOIL ZONE =            417.28
     UNSATURATED ZONE =        -903157.87       UNSATURATED ZONE =         -16016.23
       SATURATED ZONE =        -158708.08         SATURATED ZONE =          -4824.06

 OVERALL BUDGET ERROR =          -3696.77           BUDGET ERROR =            -76.00


  PERCENT DISCREPANCY =             -0.23    PERCENT DISCREPANCY =             -0.29



1
 SUMMARY VOLUMETRIC BUDGET FOR GSFLOW 
 DATE: 11 25 1980              CUMULATIVE TIME STEP:      56
 MODFLOW STRESS PERIOD      2     CURRENT TIME STEP:      56     ITERATIONS:       8

 -----------------------------------------------------------------------------------

   CUMULATIVE VOLUMES               L**3   RATES FOR THIS TIME STEP           L**3/T
   ------------------                      ------------------------

                                     IN                                         IN
                                     --                                         --
        PRECIPITATION =        1648813.76          PRECIPITATION =                  
           STREAMFLOW =                               STREAMFLOW =                  
     GW BOUNDARY FLOW =                         GW BOUNDARY FLOW =                  


                                    OUT                                        OUT
                                    ---                                        ---
   EVAPOTRANSPIRATION =        1185742.57     EVAPOTRANSPIRATION =           8792.39
           STREAMFLOW =         438524.80             STREAMFLOW =           9976.17
     GW BOUNDARY FLOW =          36331.82       GW BOUNDARY FLOW =            648.94

   INFLOWS - OUTFLOWS =         -11785.43     INFLOWS - OUTFLOWS =         -19417.50
             --------                                   --------

 TOTAL STORAGE CHANGE =          -7554.40         STORAGE CHANGE =         -19352.80
       --------------                             --------------
         LAND SURFACE =          55166.56           LAND SURFACE =          -8744.72
            SOIL ZONE =        1144799.12              SOIL ZONE =          10127.49
     UNSATURATED ZONE =       -1012779.27       UNSATURATED ZONE =         -15404.83
       SATURATED ZONE =        -194740.82         SATURATED ZONE =          -5330.74

 OVERALL BUDGET ERROR =          -4231.03           BUDGET ERROR =            -64.69


  PERCENT DISCREPANCY =             -0.26    PERCENT DISCREPANCY =             -0.33



1
 SUMMARY VOLUMETRIC BUDGET FOR GSFLOW 
 DATE: 12 02 1980              CUMULATIVE TIME STEP:      63
 MODFLOW STRESS PERIOD      2     CURRENT TIME STEP:      63     ITERATIONS:       8

 -----------------------------------------------------------------------------------

   CUMULATIVE VOLUMES               L**3   RATES FOR THIS TIME STEP           L**3/T
   ------------------                      ------------------------

                                     IN                                         IN
                                     --                                         --
        PRECIPITATION =        2076620.74          PRECIPITATION =                  
           STREAMFLOW =                               STREAMFLOW =                  
     GW BOUNDARY FLOW =                         GW BOUNDARY FLOW =                  


                                    OUT                                        OUT
                                    ---                                        ---
   EVAPOTRANSPIRATION =        1375203.67     EVAPOTRANSPIRATION =          33951.66
           STREAMFLOW =         523914.47             STREAMFLOW =          15367.31
     GW BOUNDARY FLOW =          40875.80       GW BOUNDARY FLOW =            649.45

   INFLOWS - OUTFLOWS =         136626.80     INFLOWS - OUTFLOWS =         -49968.42
             --------                                   --------

 TOTAL STORAGE CHANGE =         141300.27         STORAGE CHANGE =         -49916.71
       --------------                             --------------
         LAND SURFACE =         152558.40           LAND SURFACE =         -75202.38
            SOIL ZONE =        1333557.94              SOIL ZONE =          42838.10
     UNSATURATED ZONE =       -1114204.05       UNSATURATED ZONE =         -12954.84
       SATURATED ZONE =        -230612.03         SATURATED ZONE =          -4597.59

 OVERALL BUDGET ERROR =          -4673.47           BUDGET ERROR =            -51.71


  PERCENT DISCREPANCY =             -0.22    PERCENT DISCREPANCY =             -0.10



1
 SUMMARY VOLUMETRIC BUDGET FOR GSFLOW 
 DATE: 12 09 1980              CUMULATIVE TIME STEP:      70
 MODFLOW STRESS PERIOD      2     CURRENT TIME STEP:      70     ITERATIONS:       8

 -----------------------------------------------------------------------------------

   CUMULATIVE VOLUMES               L**3   RATES FOR THIS TIME STEP           L**3/T
   ------------------                      ------------------------

                                     IN                                         IN
                                     --                                         --
        PRECIPITATION =        4284363.13          PRECIPITATION =                  
           STREAMFLOW =                               STREAMFLOW =                  
     GW BOUNDARY FLOW =                         GW BOUNDARY FLOW =                  


                                    OUT                                        OUT
                                    ---                                        ---
   EVAPOTRANSPIRATION =        1398622.31     EVAPOTRANSPIRATION =           2942.37
           STREAMFLOW =         624559.99             STREAMFLOW =          14710.28
     GW BOUNDARY FLOW =          45422.80       GW BOUNDARY FLOW =            649.67

   INFLOWS - OUTFLOWS =        2215758.02     INFLOWS - OUTFLOWS =         -18302.32
             --------                                   --------

 TOTAL STORAGE CHANGE =        2220890.31         STORAGE CHANGE =         -18250.48
       --------------                             --------------
         LAND SURFACE =        2335225.13           LAND SURFACE =          -2942.37
            SOIL ZONE =        1367910.26              SOIL ZONE =           4916.95
     UNSATURATED ZONE =       -1212490.79       UNSATURATED ZONE =         -14224.57
       SATURATED ZONE =        -269754.29         SATURATED ZONE =          -6000.49

 OVERALL BUDGET ERROR =          -5132.28           BUDGET ERROR =            -51.84


  PERCENT DISCREPANCY =             -0.12    PERCENT DISCREPANCY =             -0.28



1
 SUMMARY VOLUMETRIC BUDGET FOR GSFLOW 
 DATE: 12 16 1980              CUMULATIVE TIME STEP:      77
 MODFLOW STRESS PERIOD      2     CURRENT TIME STEP:      77     ITERATIONS:       7

 -----------------------------------------------------------------------------------

   CUMULATIVE VOLUMES               L**3   RATES FOR THIS TIME STEP           L**3/T
   ------------------                      ------------------------

                                     IN                                         IN
                                     --                                         --
        PRECIPITATION =        4284363.13          PRECIPITATION =                  
           STREAMFLOW =                               STREAMFLOW =                  
     GW BOUNDARY FLOW =                         GW BOUNDARY FLOW =                  


                                    OUT                                        OUT
                                    ---                                        ---
   EVAPOTRANSPIRATION =        1540616.46     EVAPOTRANSPIRATION =          33883.45
           STREAMFLOW =         746415.30             STREAMFLOW =          25215.60
     GW BOUNDARY FLOW =          49971.61       GW BOUNDARY FLOW =            650.27

   INFLOWS - OUTFLOWS =        1947359.75     INFLOWS - OUTFLOWS =         -59749.32
             --------                                   --------

 TOTAL STORAGE CHANGE =        1952923.86         STORAGE CHANGE =         -59684.50
       --------------                             --------------
         LAND SURFACE =        2023963.99           LAND SURFACE =        -129017.63
            SOIL ZONE =        1541233.94              SOIL ZONE =          82702.33
     UNSATURATED ZONE =       -1302225.81       UNSATURATED ZONE =          -8985.83
       SATURATED ZONE =        -310048.26         SATURATED ZONE =          -4383.37

 OVERALL BUDGET ERROR =          -5564.10           BUDGET ERROR =            -64.83


  PERCENT DISCREPANCY =             -0.13    PERCENT DISCREPANCY =             -0.11



1
 SUMMARY VOLUMETRIC BUDGET FOR GSFLOW 
 DATE: 12 23 1980              CUMULATIVE TIME STEP:      84
 MODFLOW STRESS PERIOD      2     CURRENT TIME STEP:      84     ITERATIONS:       9

 -----------------------------------------------------------------------------------

   CUMULATIVE VOLUMES               L**3   RATES FOR THIS TIME STEP           L**3/T
   ------------------                      ------------------------

                                     IN                                         IN
                                     --                                         --
        PRECIPITATION =        4516755.31          PRECIPITATION =                  
           STREAMFLOW =                               STREAMFLOW =                  
     GW BOUNDARY FLOW =                         GW BOUNDARY FLOW =                  


                                    OUT                                        OUT
                                    ---                                        ---
   EVAPOTRANSPIRATION =        1746657.91     EVAPOTRANSPIRATION =          35140.80
           STREAMFLOW =         975451.99             STREAMFLOW =          30478.87
     GW BOUNDARY FLOW =          54532.14       GW BOUNDARY FLOW =            651.94

   INFLOWS - OUTFLOWS =        1740113.27     INFLOWS - OUTFLOWS =         -66271.61
             --------                                   --------

 TOTAL STORAGE CHANGE =        1745996.32         STORAGE CHANGE =         -66233.51
       --------------                             --------------
         LAND SURFACE =        1433308.52           LAND SURFACE =         -48192.94
            SOIL ZONE =        1993516.46              SOIL ZONE =          -8131.44
     UNSATURATED ZONE =       -1342652.97       UNSATURATED ZONE =          -5275.79
       SATURATED ZONE =        -338175.68         SATURATED ZONE =          -4633.34

 OVERALL BUDGET ERROR =          -5883.05           BUDGET ERROR =            -38.10


  PERCENT DISCREPANCY =             -0.13    PERCENT DISCREPANCY =             -0.06



1
 SUMMARY VOLUMETRIC BUDGET FOR GSFLOW 
 DATE: 12 30 1980              CUMULATIVE TIME STEP:      91
 MODFLOW STRESS PERIOD      2     CURRENT TIME STEP:      91     ITERATIONS:      11

 -----------------------------------------------------------------------------------

   CUMULATIVE VOLUMES               L**3   RATES FOR THIS TIME STEP           L**3/T
   ------------------                      ------------------------

                                     IN                                         IN
                                     --                                         --
        PRECIPITATION =        4516755.31          PRECIPITATION =                  
           STREAMFLOW =                               STREAMFLOW =                  
     GW BOUNDARY FLOW =                         GW BOUNDARY FLOW =                  


                                    OUT                                        OUT
                                    ---                                        ---
   EVAPOTRANSPIRATION =        2107284.27     EVAPOTRANSPIRATION =          45887.39
           STREAMFLOW =        1224083.33             STREAMFLOW =          27636.23
     GW BOUNDARY FLOW =          59099.13       GW BOUNDARY FLOW =            652.41

   INFLOWS - OUTFLOWS =        1126288.59     INFLOWS - OUTFLOWS =         -74176.03
             --------                                   --------

 TOTAL STORAGE CHANGE =        1132342.88         STORAGE CHANGE =         -74147.52
       --------------                             --------------
         LAND SURFACE =         641176.37           LAND SURFACE =         -40371.69
            SOIL ZONE =        2204227.15              SOIL ZONE =         -24670.10
     UNSATURATED ZONE =       -1350201.18       UNSATURATED ZONE =          -4993.35
       SATURATED ZONE =        -362859.46         SATURATED ZONE =          -4112.38

 OVERALL BUDGET ERROR =          -6054.29           BUDGET ERROR =            -28.51


  PERCENT DISCREPANCY =             -0.13    PERCENT DISCREPANCY =             -0.04



1
 SUMMARY VOLUMETRIC BUDGET FOR GSFLOW 
 DATE: 01 06 1981              CUMULATIVE TIME STEP:      98
 MODFLOW STRESS PERIOD      2     CURRENT TIME STEP:      98     ITERATIONS:       8

 -----------------------------------------------------------------------------------

   CUMULATIVE VOLUMES               L**3   RATES FOR THIS TIME STEP           L**3/T
   ------------------                      ------------------------

                                     IN                                         IN
                                     --                                         --
        PRECIPITATION =        5004445.82          PRECIPITATION =                  
           STREAMFLOW =                               STREAMFLOW =                  
     GW BOUNDARY FLOW =                         GW BOUNDARY FLOW =                  


                                    OUT                                        OUT
                                    ---                                        ---
   EVAPOTRANSPIRATION =        2335206.41     EVAPOTRANSPIRATION =          21388.47
           STREAMFLOW =        1379688.77             STREAMFLOW =          21364.63
     GW BOUNDARY FLOW =          63660.90       GW BOUNDARY FLOW =            651.28

   INFLOWS - OUTFLOWS =        1225889.73     INFLOWS - OUTFLOWS =         -43404.38
             --------                                   --------

 TOTAL STORAGE CHANGE =        1232155.86         STORAGE CHANGE =         -43366.21
       --------------                             --------------
         LAND SURFACE =         837061.68           LAND SURFACE =         -30417.13
            SOIL ZONE =        2210261.18              SOIL ZONE =           2615.40
     UNSATURATED ZONE =       -1415108.86       UNSATURATED ZONE =          -9927.08
       SATURATED ZONE =        -400058.14         SATURATED ZONE =          -5637.39

 OVERALL BUDGET ERROR =          -6266.13           BUDGET ERROR =            -38.17


  PERCENT DISCREPANCY =             -0.13    PERCENT DISCREPANCY =             -0.09



1
 SUMMARY VOLUMETRIC BUDGET FOR GSFLOW 
 DATE: 01 13 1981              CUMULATIVE TIME STEP:     105
 MODFLOW STRESS PERIOD      2     CURRENT TIME STEP:     105     ITERATIONS:       7

 -----------------------------------------------------------------------------------

   CUMULATIVE VOLUMES               L**3   RATES FOR THIS TIME STEP           L**3/T
   ------------------                      ------------------------

                                     IN                                         IN
                                     --                                         --
        PRECIPITATION =        5004445.82          PRECIPITATION =                  
           STREAMFLOW =                               STREAMFLOW =                  
     GW BOUNDARY FLOW =                         GW BOUNDARY FLOW =                  


                                    OUT                                        OUT
                                    ---                                        ---
   EVAPOTRANSPIRATION =        2552718.69     EVAPOTRANSPIRATION =          44453.51
           STREAMFLOW =        1528620.53             STREAMFLOW =          20147.73
     GW BOUNDARY FLOW =          68218.18       GW BOUNDARY FLOW =            650.85

   INFLOWS - OUTFLOWS =         854888.42     INFLOWS - OUTFLOWS =         -65252.09
             --------                                   --------

 TOTAL STORAGE CHANGE =         861521.92         STORAGE CHANGE =         -65188.07
       --------------                             --------------
         LAND SURFACE =         626703.68           LAND SURFACE =         -38989.03
            SOIL ZONE =        2156526.00              SOIL ZONE =         -10598.04
     UNSATURATED ZONE =       -1478923.51       UNSATURATED ZONE =          -9118.26
       SATURATED ZONE =        -442784.25         SATURATED ZONE =          -6482.74

 OVERALL BUDGET ERROR =          -6633.50           BUDGET ERROR =            -64.02


  PERCENT DISCREPANCY =             -0.13    PERCENT DISCREPANCY =             -0.10



1
 SUMMARY VOLUMETRIC BUDGET FOR GSFLOW 
 DATE: 01 20 1981              CUMULATIVE TIME STEP:     112
 MODFLOW STRESS PERIOD      2     CURRENT TIME STEP:     112     ITERATIONS:       7

 -----------------------------------------------------------------------------------

   CUMULATIVE VOLUMES               L**3   RATES FOR THIS TIME STEP           L**3/T
   ------------------                      ------------------------

                                     IN                                         IN
                                     --                                         --
        PRECIPITATION =        5170468.48          PRECIPITATION =          41503.16
           STREAMFLOW =                               STREAMFLOW =                  
     GW BOUNDARY FLOW =                         GW BOUNDARY FLOW =                  


                                    OUT                                        OUT
                                    ---                                        ---
   EVAPOTRANSPIRATION =        2833964.13     EVAPOTRANSPIRATION =          34835.33
           STREAMFLOW =        1671192.51             STREAMFLOW =          20265.05
     GW BOUNDARY FLOW =          72773.11       GW BOUNDARY FLOW =            650.66

   INFLOWS - OUTFLOWS =         592538.73     INFLOWS - OUTFLOWS =         -14247.88
             --------                                   --------

 TOTAL STORAGE CHANGE =         599496.95         STORAGE CHANGE =         -14194.56
       --------------                             --------------
         LAND SURFACE =         436309.37           LAND SURFACE =           4324.83
            SOIL ZONE =        2159451.21              SOIL ZONE =         -10245.51
     UNSATURATED ZONE =       -1509547.25       UNSATURATED ZONE =          -1780.10
       SATURATED ZONE =        -486716.38         SATURATED ZONE =          -6493.78

 OVERALL BUDGET ERROR =          -6958.22           BUDGET ERROR =            -53.32


  PERCENT DISCREPANCY =             -0.13    PERCENT DISCREPANCY =             -0.10



1
 SUMMARY VOLUMETRIC BUDGET FOR GSFLOW 
 DATE: 01 27 1981              CUMULATIVE TIME STEP:     119
 MODFLOW STRESS PERIOD      2     CURRENT TIME STEP:     119     ITERATIONS:       9

 -----------------------------------------------------------------------------------

   CUMULATIVE VOLUMES               L**3   RATES FOR THIS TIME STEP           L**3/T
   ------------------                      ------------------------

                                     IN                                         IN
                                     --                                         --
        PRECIPITATION =        8646542.90          PRECIPITATION =        2936504.96
           STREAMFLOW =                               STREAMFLOW =                  
     GW BOUNDARY FLOW =                         GW BOUNDARY FLOW =                  


                                    OUT                                        OUT
                                    ---                                        ---
   EVAPOTRANSPIRATION =        3067729.98     EVAPOTRANSPIRATION =          13121.10
           STREAMFLOW =        1817585.31             STREAMFLOW =          18746.99
     GW BOUNDARY FLOW =          77327.59       GW BOUNDARY FLOW =            650.46

   INFLOWS - OUTFLOWS =        3683900.02     INFLOWS - OUTFLOWS =        2903986.42
             --------                                   --------

 TOTAL STORAGE CHANGE =        3691038.82         STORAGE CHANGE =        2904010.72
       --------------                             --------------
         LAND SURFACE =        3540208.69           LAND SURFACE =        2923350.57
            SOIL ZONE =        2180485.51              SOIL ZONE =          -7829.41
     UNSATURATED ZONE =       -1498406.32       UNSATURATED ZONE =          -4760.22
       SATURATED ZONE =        -531249.06         SATURATED ZONE =          -6750.22

 OVERALL BUDGET ERROR =          -7138.80           BUDGET ERROR =            -24.30


  PERCENT DISCREPANCY =             -0.08    PERCENT DISCREPANCY =             -0.00



1
 SUMMARY VOLUMETRIC BUDGET FOR GSFLOW 
 DATE: 02 03 1981              CUMULATIVE TIME STEP:     126
 MODFLOW STRESS PERIOD      2     CURRENT TIME STEP:     126     ITERATIONS:       9

 -----------------------------------------------------------------------------------

   CUMULATIVE VOLUMES               L**3   RATES FOR THIS TIME STEP           L**3/T
   ------------------                      ------------------------

                                     IN                                         IN
                                     --                                         --
        PRECIPITATION =        1.1739D+07          PRECIPITATION =                  
           STREAMFLOW =                               STREAMFLOW =                  
     GW BOUNDARY FLOW =                         GW BOUNDARY FLOW =                  


                                    OUT                                        OUT
                                    ---                                        ---
   EVAPOTRANSPIRATION =        3104242.87     EVAPOTRANSPIRATION =           6975.55
           STREAMFLOW =        1944592.73             STREAMFLOW =          18014.56
     GW BOUNDARY FLOW =          81879.76       GW BOUNDARY FLOW =            650.26

   INFLOWS - OUTFLOWS =        6607982.42     INFLOWS - OUTFLOWS =         -25640.37
             --------                                   --------

 TOTAL STORAGE CHANGE =        6615272.72         STORAGE CHANGE =         -25623.56
       --------------                             --------------
         LAND SURFACE =        6595850.65           LAND SURFACE =          -6975.55
            SOIL ZONE =        2169045.91              SOIL ZONE =            422.17
     UNSATURATED ZONE =       -1567282.74       UNSATURATED ZONE =         -11422.34
       SATURATED ZONE =        -582341.10         SATURATED ZONE =          -7647.84

 OVERALL BUDGET ERROR =          -7290.30           BUDGET ERROR =            -16.81


  PERCENT DISCREPANCY =             -0.06    PERCENT DISCREPANCY =             -0.07



1
 SUMMARY VOLUMETRIC BUDGET FOR GSFLOW 
 DATE: 02 10 1981              CUMULATIVE TIME STEP:     133
 MODFLOW STRESS PERIOD      2     CURRENT TIME STEP:     133     ITERATIONS:       8

 -----------------------------------------------------------------------------------

   CUMULATIVE VOLUMES               L**3   RATES FOR THIS TIME STEP           L**3/T
   ------------------                      ------------------------

                                     IN                                         IN
                                     --                                         --
        PRECIPITATION =        1.1838D+07          PRECIPITATION =                  
           STREAMFLOW =                               STREAMFLOW =                  
     GW BOUNDARY FLOW =                         GW BOUNDARY FLOW =                  


                                    OUT                                        OUT
                                    ---                                        ---
   EVAPOTRANSPIRATION =        3229644.11     EVAPOTRANSPIRATION =          32880.24
           STREAMFLOW =        2070919.06             STREAMFLOW =          18067.59
     GW BOUNDARY FLOW =          86431.55       GW BOUNDARY FLOW =            650.25

   INFLOWS - OUTFLOWS =        6451268.51     INFLOWS - OUTFLOWS =         -51598.07
             --------                                   --------

 TOTAL STORAGE CHANGE =        6458853.36         STORAGE CHANGE =         -51559.06
       --------------                             --------------
         LAND SURFACE =        6570014.87           LAND SURFACE =         -32880.24
            SOIL ZONE =        2173201.43              SOIL ZONE =            574.29
     UNSATURATED ZONE =       -1645800.45       UNSATURATED ZONE =         -10840.33
       SATURATED ZONE =        -638562.48         SATURATED ZONE =          -8412.79

 OVERALL BUDGET ERROR =          -7584.85           BUDGET ERROR =            -39.01


  PERCENT DISCREPANCY =             -0.06    PERCENT DISCREPANCY =             -0.08



1
 SUMMARY VOLUMETRIC BUDGET FOR GSFLOW 
 DATE: 02 17 1981              CUMULATIVE TIME STEP:     140
 MODFLOW STRESS PERIOD      2     CURRENT TIME STEP:     140     ITERATIONS:      14

 -----------------------------------------------------------------------------------

   CUMULATIVE VOLUMES               L**3   RATES FOR THIS TIME STEP           L**3/T
   ------------------                      ------------------------

                                     IN                                         IN
                                     --                                         --
        PRECIPITATION =        1.2765D+07          PRECIPITATION =          68928.68
           STREAMFLOW =                               STREAMFLOW =                  
     GW BOUNDARY FLOW =                         GW BOUNDARY FLOW =                  


                                    OUT                                        OUT
                                    ---                                        ---
   EVAPOTRANSPIRATION =        3567733.66     EVAPOTRANSPIRATION =          68604.82
           STREAMFLOW =        2616639.26             STREAMFLOW =         125632.90
     GW BOUNDARY FLOW =          91005.53       GW BOUNDARY FLOW =            656.87

   INFLOWS - OUTFLOWS =        6489602.21     INFLOWS - OUTFLOWS =        -125965.91
             --------                                   --------

 TOTAL STORAGE CHANGE =        6497463.72         STORAGE CHANGE =        -125950.88
       --------------                             --------------
         LAND SURFACE =        5590136.74           LAND SURFACE =        -278668.69
            SOIL ZONE =        2961557.70              SOIL ZONE =          72154.88
     UNSATURATED ZONE =       -1400025.52       UNSATURATED ZONE =          77980.60
       SATURATED ZONE =        -654205.20         SATURATED ZONE =           2582.34

 OVERALL BUDGET ERROR =          -7861.50           BUDGET ERROR =            -15.03


  PERCENT DISCREPANCY =             -0.06    PERCENT DISCREPANCY =             -0.01



1
 SUMMARY VOLUMETRIC BUDGET FOR GSFLOW 
 DATE: 02 24 1981              CUMULATIVE TIME STEP:     147
 MODFLOW STRESS PERIOD      2     CURRENT TIME STEP:     147     ITERATIONS:      14

 -----------------------------------------------------------------------------------

   CUMULATIVE VOLUMES               L**3   RATES FOR THIS TIME STEP           L**3/T
   ------------------                      ------------------------

                                     IN                                         IN
                                     --                                         --
        PRECIPITATION =        1.3179D+07          PRECIPITATION =         344647.71
           STREAMFLOW =                               STREAMFLOW =                  
     GW BOUNDARY FLOW =                         GW BOUNDARY FLOW =                  


                                    OUT                                        OUT
                                    ---                                        ---
   EVAPOTRANSPIRATION =        3909055.94     EVAPOTRANSPIRATION =          18832.86
           STREAMFLOW =        3176704.37             STREAMFLOW =          52178.37
     GW BOUNDARY FLOW =          95598.80       GW BOUNDARY FLOW =            655.15

   INFLOWS - OUTFLOWS =        5997199.35     INFLOWS - OUTFLOWS =         272981.32
             --------                                   --------

 TOTAL STORAGE CHANGE =        6005008.49         STORAGE CHANGE =         272974.39
       --------------                             --------------
         LAND SURFACE =        4984331.51           LAND SURFACE =         286391.25
            SOIL ZONE =        2698056.57              SOIL ZONE =         -43395.75
     UNSATURATED ZONE =       -1047499.33       UNSATURATED ZONE =          27556.78
       SATURATED ZONE =        -629880.26         SATURATED ZONE =           2422.11

 OVERALL BUDGET ERROR =          -7809.14           BUDGET ERROR =              6.93


  PERCENT DISCREPANCY =             -0.06    PERCENT DISCREPANCY =              0.00



1
 SUMMARY VOLUMETRIC BUDGET FOR GSFLOW 
 DATE: 03 03 1981              CUMULATIVE TIME STEP:     154
 MODFLOW STRESS PERIOD      2     CURRENT TIME STEP:     154     ITERATIONS:      11

 -----------------------------------------------------------------------------------

   CUMULATIVE VOLUMES               L**3   RATES FOR THIS TIME STEP           L**3/T
   ------------------                      ------------------------

                                     IN                                         IN
                                     --                                         --
        PRECIPITATION =        1.3447D+07          PRECIPITATION =                  
           STREAMFLOW =                               STREAMFLOW =                  
     GW BOUNDARY FLOW =                         GW BOUNDARY FLOW =                  


                                    OUT                                        OUT
                                    ---                                        ---
   EVAPOTRANSPIRATION =        4069737.53     EVAPOTRANSPIRATION =          45353.37
           STREAMFLOW =        3401062.11             STREAMFLOW =          27807.67
     GW BOUNDARY FLOW =         100171.78       GW BOUNDARY FLOW =            652.32

   INFLOWS - OUTFLOWS =        5875647.37     INFLOWS - OUTFLOWS =         -73813.37
             --------                                   --------

 TOTAL STORAGE CHANGE =        5883337.85         STORAGE CHANGE =         -73835.11
       --------------                             --------------
         LAND SURFACE =        5068234.96           LAND SURFACE =         -66032.09
            SOIL ZONE =        2489680.79              SOIL ZONE =           2862.49
     UNSATURATED ZONE =       -1041084.30       UNSATURATED ZONE =          -8836.91
       SATURATED ZONE =        -633493.59         SATURATED ZONE =          -1828.60

 OVERALL BUDGET ERROR =          -7690.48           BUDGET ERROR =             21.74


  PERCENT DISCREPANCY =             -0.06    PERCENT DISCREPANCY =              0.03



1
 SUMMARY VOLUMETRIC BUDGET FOR GSFLOW 
 DATE: 03 10 1981              CUMULATIVE TIME STEP:     161
 MODFLOW STRESS PERIOD      2     CURRENT TIME STEP:     161     ITERATIONS:      11

 -----------------------------------------------------------------------------------

   CUMULATIVE VOLUMES               L**3   RATES FOR THIS TIME STEP           L**3/T
   ------------------                      ------------------------

                                     IN                                         IN
                                     --                                         --
        PRECIPITATION =        1.3493D+07          PRECIPITATION =                  
           STREAMFLOW =                               STREAMFLOW =                  
     GW BOUNDARY FLOW =                         GW BOUNDARY FLOW =                  


                                    OUT                                        OUT
                                    ---                                        ---
   EVAPOTRANSPIRATION =        4415519.97     EVAPOTRANSPIRATION =          72809.14
           STREAMFLOW =        3637378.38             STREAMFLOW =          43703.17
     GW BOUNDARY FLOW =         104737.89       GW BOUNDARY FLOW =            652.94

   INFLOWS - OUTFLOWS =        5335318.28     INFLOWS - OUTFLOWS =        -117165.26
             --------                                   --------

 TOTAL STORAGE CHANGE =        5342928.97         STORAGE CHANGE =        -117178.67
       --------------                             --------------
         LAND SURFACE =        4391776.94           LAND SURFACE =        -169082.62
            SOIL ZONE =        2603674.48              SOIL ZONE =          28965.43
     UNSATURATED ZONE =       -1008074.30       UNSATURATED ZONE =          23164.02
       SATURATED ZONE =        -644448.16         SATURATED ZONE =           -225.50

 OVERALL BUDGET ERROR =          -7610.69           BUDGET ERROR =             13.41


  PERCENT DISCREPANCY =             -0.06    PERCENT DISCREPANCY =              0.01



1
 SUMMARY VOLUMETRIC BUDGET FOR GSFLOW 
 DATE: 03 17 1981              CUMULATIVE TIME STEP:     168
 MODFLOW STRESS PERIOD      2     CURRENT TIME STEP:     168     ITERATIONS:       9

 -----------------------------------------------------------------------------------

   CUMULATIVE VOLUMES               L**3   RATES FOR THIS TIME STEP           L**3/T
   ------------------                      ------------------------

                                     IN                                         IN
                                     --                                         --
        PRECIPITATION =        1.3745D+07          PRECIPITATION =                  
           STREAMFLOW =                               STREAMFLOW =                  
     GW BOUNDARY FLOW =                         GW BOUNDARY FLOW =                  


                                    OUT                                        OUT
                                    ---                                        ---
   EVAPOTRANSPIRATION =        4783924.71     EVAPOTRANSPIRATION =          40234.43
           STREAMFLOW =        3864709.64             STREAMFLOW =          24168.00
     GW BOUNDARY FLOW =         109305.22       GW BOUNDARY FLOW =            651.89

   INFLOWS - OUTFLOWS =        4986563.25     INFLOWS - OUTFLOWS =         -65054.31
             --------                                   --------

 TOTAL STORAGE CHANGE =        4994082.95         STORAGE CHANGE =         -65062.41
       --------------                             --------------
         LAND SURFACE =        4202563.01           LAND SURFACE =         -39897.20
            SOIL ZONE =        2438303.46              SOIL ZONE =          -5420.17
     UNSATURATED ZONE =        -987198.11       UNSATURATED ZONE =         -15769.92
       SATURATED ZONE =        -659585.41         SATURATED ZONE =          -3975.13

 OVERALL BUDGET ERROR =          -7519.71           BUDGET ERROR =              8.10


  PERCENT DISCREPANCY =             -0.05    PERCENT DISCREPANCY =              0.01



1
 SUMMARY VOLUMETRIC BUDGET FOR GSFLOW 
 DATE: 03 24 1981              CUMULATIVE TIME STEP:     175
 MODFLOW STRESS PERIOD      2     CURRENT TIME STEP:     175     ITERATIONS:       9

 -----------------------------------------------------------------------------------

   CUMULATIVE VOLUMES               L**3   RATES FOR THIS TIME STEP           L**3/T
   ------------------                      ------------------------

                                     IN                                         IN
                                     --                                         --
        PRECIPITATION =        1.4367D+07          PRECIPITATION =                  
           STREAMFLOW =                               STREAMFLOW =                  
     GW BOUNDARY FLOW =                         GW BOUNDARY FLOW =                  


                                    OUT                                        OUT
                                    ---                                        ---
   EVAPOTRANSPIRATION =        5139706.97     EVAPOTRANSPIRATION =          87430.63
           STREAMFLOW =        4040693.51             STREAMFLOW =          26839.21
     GW BOUNDARY FLOW =         113865.71       GW BOUNDARY FLOW =            651.46

   INFLOWS - OUTFLOWS =        5072490.04     INFLOWS - OUTFLOWS =        -114921.30
             --------                                   --------

 TOTAL STORAGE CHANGE =        5080027.33         STORAGE CHANGE =        -114924.65
       --------------                             --------------
         LAND SURFACE =        4477883.40           LAND SURFACE =         -65021.85
            SOIL ZONE =        2351054.26              SOIL ZONE =         -41080.98
     UNSATURATED ZONE =       -1057845.89       UNSATURATED ZONE =          -4279.04
       SATURATED ZONE =        -691064.44         SATURATED ZONE =          -4542.77

 OVERALL BUDGET ERROR =          -7537.28           BUDGET ERROR =              3.35


  PERCENT DISCREPANCY =             -0.05    PERCENT DISCREPANCY =              0.00



1
 SUMMARY VOLUMETRIC BUDGET FOR GSFLOW 
 DATE: 03 31 1981              CUMULATIVE TIME STEP:     182
 MODFLOW STRESS PERIOD      2     CURRENT TIME STEP:     182     ITERATIONS:      12

 -----------------------------------------------------------------------------------

   CUMULATIVE VOLUMES               L**3   RATES FOR THIS TIME STEP           L**3/T
   ------------------                      ------------------------

                                     IN                                         IN
                                     --                                         --
        PRECIPITATION =        1.5777D+07          PRECIPITATION =                  
           STREAMFLOW =                               STREAMFLOW =                  
     GW BOUNDARY FLOW =                         GW BOUNDARY FLOW =                  


                                    OUT                                        OUT
                                    ---                                        ---
   EVAPOTRANSPIRATION =        5569637.74     EVAPOTRANSPIRATION =          54089.89
           STREAMFLOW =        4549949.20             STREAMFLOW =          37149.50
     GW BOUNDARY FLOW =         118447.78       GW BOUNDARY FLOW =            653.61

   INFLOWS - OUTFLOWS =        5538731.47     INFLOWS - OUTFLOWS =         -91893.00
             --------                                   --------

 TOTAL STORAGE CHANGE =        5546208.55         STORAGE CHANGE =         -91918.55
       --------------                             --------------
         LAND SURFACE =        4494493.37           LAND SURFACE =         -55486.84
            SOIL ZONE =        2547516.56              SOIL ZONE =         -41726.56
     UNSATURATED ZONE =        -813406.99       UNSATURATED ZONE =           5911.69
       SATURATED ZONE =        -682394.39         SATURATED ZONE =           -616.84

 OVERALL BUDGET ERROR =          -7477.08           BUDGET ERROR =             25.55


  PERCENT DISCREPANCY =             -0.05    PERCENT DISCREPANCY =              0.03



1
 SUMMARY VOLUMETRIC BUDGET FOR GSFLOW 
 DATE: 04 07 1981              CUMULATIVE TIME STEP:     189
 MODFLOW STRESS PERIOD      2     CURRENT TIME STEP:     189     ITERATIONS:      10

 -----------------------------------------------------------------------------------

   CUMULATIVE VOLUMES               L**3   RATES FOR THIS TIME STEP           L**3/T
   ------------------                      ------------------------

                                     IN                                         IN
                                     --                                         --
        PRECIPITATION =        1.6121D+07          PRECIPITATION =                  
           STREAMFLOW =                               STREAMFLOW =                  
     GW BOUNDARY FLOW =                         GW BOUNDARY FLOW =                  


                                    OUT                                        OUT
                                    ---                                        ---
   EVAPOTRANSPIRATION =        6195701.87     EVAPOTRANSPIRATION =         103842.76
           STREAMFLOW =        4868555.99             STREAMFLOW =          43443.96
     GW BOUNDARY FLOW =         123023.12       GW BOUNDARY FLOW =            653.74

   INFLOWS - OUTFLOWS =        4934202.17     INFLOWS - OUTFLOWS =        -147940.46
             --------                                   --------

 TOTAL STORAGE CHANGE =        4941567.39         STORAGE CHANGE =        -147963.02
       --------------                             --------------
         LAND SURFACE =        3870392.88           LAND SURFACE =        -138669.71
            SOIL ZONE =        2478838.54              SOIL ZONE =         -20344.19
     UNSATURATED ZONE =        -729509.05       UNSATURATED ZONE =          10699.92
       SATURATED ZONE =        -678154.99         SATURATED ZONE =            350.95

 OVERALL BUDGET ERROR =          -7365.22           BUDGET ERROR =             22.56


  PERCENT DISCREPANCY =             -0.05    PERCENT DISCREPANCY =              0.02



1
 SUMMARY VOLUMETRIC BUDGET FOR GSFLOW 
 DATE: 04 14 1981              CUMULATIVE TIME STEP:     196
 MODFLOW STRESS PERIOD      2     CURRENT TIME STEP:     196     ITERATIONS:      13

 -----------------------------------------------------------------------------------

   CUMULATIVE VOLUMES               L**3   RATES FOR THIS TIME STEP           L**3/T
   ------------------                      ------------------------

                                     IN                                         IN
                                     --                                         --
        PRECIPITATION =        1.6121D+07          PRECIPITATION =                  
           STREAMFLOW =                               STREAMFLOW =                  
     GW BOUNDARY FLOW =                         GW BOUNDARY FLOW =                  


                                    OUT                                        OUT
                                    ---                                        ---
   EVAPOTRANSPIRATION =        7106391.61     EVAPOTRANSPIRATION =         191910.02
           STREAMFLOW =        5196083.22             STREAMFLOW =          55527.41
     GW BOUNDARY FLOW =         127598.55       GW BOUNDARY FLOW =            653.68

   INFLOWS - OUTFLOWS =        3691409.77     INFLOWS - OUTFLOWS =        -248091.12
             --------                                   --------

 TOTAL STORAGE CHANGE =        3698650.24         STORAGE CHANGE =        -248099.74
       --------------                             --------------
         LAND SURFACE =        2621639.71           LAND SURFACE =        -253015.87
            SOIL ZONE =        2387302.57              SOIL ZONE =         -16801.91
     UNSATURATED ZONE =        -639123.93       UNSATURATED ZONE =          19479.43
       SATURATED ZONE =        -671168.10         SATURATED ZONE =           2238.62

 OVERALL BUDGET ERROR =          -7240.48           BUDGET ERROR =              8.63


  PERCENT DISCREPANCY =             -0.04    PERCENT DISCREPANCY =              0.00



1
 SUMMARY VOLUMETRIC BUDGET FOR GSFLOW 
 DATE: 04 21 1981              CUMULATIVE TIME STEP:     203
 MODFLOW STRESS PERIOD      2     CURRENT TIME STEP:     203     ITERATIONS:      12

 -----------------------------------------------------------------------------------

   CUMULATIVE VOLUMES               L**3   RATES FOR THIS TIME STEP           L**3/T
   ------------------                      ------------------------

                                     IN                                         IN
                                     --                                         --
        PRECIPITATION =        1.6310D+07          PRECIPITATION =                  
           STREAMFLOW =                               STREAMFLOW =                  
     GW BOUNDARY FLOW =                         GW BOUNDARY FLOW =                  


                                    OUT                                        OUT
                                    ---                                        ---
   EVAPOTRANSPIRATION =        8178350.88     EVAPOTRANSPIRATION =         152248.43
           STREAMFLOW =        5535638.44             STREAMFLOW =          45840.42
     GW BOUNDARY FLOW =         132170.01       GW BOUNDARY FLOW =            652.64

   INFLOWS - OUTFLOWS =        2464098.08     INFLOWS - OUTFLOWS =        -198741.49
             --------                                   --------

 TOTAL STORAGE CHANGE =        2471213.10         STORAGE CHANGE =        -198770.70
       --------------                             --------------
         LAND SURFACE =        1441063.64           LAND SURFACE =        -121364.40
            SOIL ZONE =        2205419.77              SOIL ZONE =         -97315.68
     UNSATURATED ZONE =        -521838.95       UNSATURATED ZONE =          16938.23
       SATURATED ZONE =        -653431.36         SATURATED ZONE =           2971.16

 OVERALL BUDGET ERROR =          -7115.02           BUDGET ERROR =             29.21


  PERCENT DISCREPANCY =             -0.04    PERCENT DISCREPANCY =              0.01



1
 SUMMARY VOLUMETRIC BUDGET FOR GSFLOW 
 DATE: 04 28 1981              CUMULATIVE TIME STEP:     210
 MODFLOW STRESS PERIOD      2     CURRENT TIME STEP:     210     ITERATIONS:      14

 -----------------------------------------------------------------------------------

   CUMULATIVE VOLUMES               L**3   RATES FOR THIS TIME STEP           L**3/T
   ------------------                      ------------------------

                                     IN                                         IN
                                     --                                         --
        PRECIPITATION =        1.6515D+07          PRECIPITATION =                  
           STREAMFLOW =                               STREAMFLOW =                  
     GW BOUNDARY FLOW =                         GW BOUNDARY FLOW =                  


                                    OUT                                        OUT
                                    ---                                        ---
   EVAPOTRANSPIRATION =        9416872.40     EVAPOTRANSPIRATION =         200409.61
           STREAMFLOW =        5747997.84             STREAMFLOW =          24700.25
     GW BOUNDARY FLOW =         136729.51       GW BOUNDARY FLOW =            650.47

   INFLOWS - OUTFLOWS =        1213847.20     INFLOWS - OUTFLOWS =        -225760.34
             --------                                   --------

 TOTAL STORAGE CHANGE =        1220846.03         STORAGE CHANGE =        -225774.65
       --------------                             --------------
         LAND SURFACE =         691620.73           LAND SURFACE =         -83515.74
            SOIL ZONE =        1695359.58              SOIL ZONE =        -138441.09
     UNSATURATED ZONE =        -520607.30       UNSATURATED ZONE =          -4101.94
       SATURATED ZONE =        -645526.98         SATURATED ZONE =            284.13

 OVERALL BUDGET ERROR =          -6998.83           BUDGET ERROR =             14.31


  PERCENT DISCREPANCY =             -0.04    PERCENT DISCREPANCY =              0.01



1
 SUMMARY VOLUMETRIC BUDGET FOR GSFLOW 
 DATE: 05 05 1981              CUMULATIVE TIME STEP:     217
 MODFLOW STRESS PERIOD      2     CURRENT TIME STEP:     217     ITERATIONS:      13

 -----------------------------------------------------------------------------------

   CUMULATIVE VOLUMES               L**3   RATES FOR THIS TIME STEP           L**3/T
   ------------------                      ------------------------

                                     IN                                         IN
                                     --                                         --
        PRECIPITATION =        1.6515D+07          PRECIPITATION =                  
           STREAMFLOW =                               STREAMFLOW =                  
     GW BOUNDARY FLOW =                         GW BOUNDARY FLOW =                  


                                    OUT                                        OUT
                                    ---                                        ---
   EVAPOTRANSPIRATION =        1.0304D+07     EVAPOTRANSPIRATION =          52081.54
           STREAMFLOW =        5853078.88             STREAMFLOW =          10618.69
     GW BOUNDARY FLOW =         141275.87       GW BOUNDARY FLOW =            648.78

   INFLOWS - OUTFLOWS =         217271.10     INFLOWS - OUTFLOWS =         -63349.01
             --------                                   --------

 TOTAL STORAGE CHANGE =         224212.25         STORAGE CHANGE =         -63357.01
       --------------                             --------------
         LAND SURFACE =         347403.61           LAND SURFACE =         -17503.36
            SOIL ZONE =        1153963.30              SOIL ZONE =         -26285.30
     UNSATURATED ZONE =        -618531.80       UNSATURATED ZONE =         -16490.82
       SATURATED ZONE =        -658622.85         SATURATED ZONE =          -3077.53

 OVERALL BUDGET ERROR =          -6941.15           BUDGET ERROR =              8.00


  PERCENT DISCREPANCY =             -0.04    PERCENT DISCREPANCY =              0.01



1
 SUMMARY VOLUMETRIC BUDGET FOR GSFLOW 
 DATE: 05 12 1981              CUMULATIVE TIME STEP:     224
 MODFLOW STRESS PERIOD      2     CURRENT TIME STEP:     224     ITERATIONS:      15

 -----------------------------------------------------------------------------------

   CUMULATIVE VOLUMES               L**3   RATES FOR THIS TIME STEP           L**3/T
   ------------------                      ------------------------

                                     IN                                         IN
                                     --                                         --
        PRECIPITATION =        1.6515D+07          PRECIPITATION =                  
           STREAMFLOW =                               STREAMFLOW =                  
     GW BOUNDARY FLOW =                         GW BOUNDARY FLOW =                  


                                    OUT                                        OUT
                                    ---                                        ---
   EVAPOTRANSPIRATION =        1.0824D+07     EVAPOTRANSPIRATION =          91406.52
           STREAMFLOW =        5922214.84             STREAMFLOW =          10134.62
     GW BOUNDARY FLOW =         145814.31       GW BOUNDARY FLOW =            648.17

   INFLOWS - OUTFLOWS =        -376879.48     INFLOWS - OUTFLOWS =        -102189.31
             --------                                   --------

 TOTAL STORAGE CHANGE =        -369929.03         STORAGE CHANGE =        -102185.38
       --------------                             --------------
         LAND SURFACE =         198720.95           LAND SURFACE =         -25499.92
            SOIL ZONE =         845916.45              SOIL ZONE =         -57498.10
     UNSATURATED ZONE =        -726046.26       UNSATURATED ZONE =         -13705.34
       SATURATED ZONE =        -688520.17         SATURATED ZONE =          -5482.03

 OVERALL BUDGET ERROR =          -6950.45           BUDGET ERROR =             -3.93


  PERCENT DISCREPANCY =             -0.04    PERCENT DISCREPANCY =             -0.00



1
 SUMMARY VOLUMETRIC BUDGET FOR GSFLOW 
 DATE: 05 19 1981              CUMULATIVE TIME STEP:     231
 MODFLOW STRESS PERIOD      2     CURRENT TIME STEP:     231     ITERATIONS:      15

 -----------------------------------------------------------------------------------

   CUMULATIVE VOLUMES               L**3   RATES FOR THIS TIME STEP           L**3/T
   ------------------                      ------------------------

                                     IN                                         IN
                                     --                                         --
        PRECIPITATION =        1.7837D+07          PRECIPITATION =         169047.83
           STREAMFLOW =                               STREAMFLOW =                  
     GW BOUNDARY FLOW =                         GW BOUNDARY FLOW =                  


                                    OUT                                        OUT
                                    ---                                        ---
   EVAPOTRANSPIRATION =        1.1182D+07     EVAPOTRANSPIRATION =          35342.78
           STREAMFLOW =        6046871.43             STREAMFLOW =          25711.97
     GW BOUNDARY FLOW =         150353.34       GW BOUNDARY FLOW =            649.44

   INFLOWS - OUTFLOWS =         458152.95     INFLOWS - OUTFLOWS =         107343.64
             --------                                   --------

 TOTAL STORAGE CHANGE =         465113.85         STORAGE CHANGE =         107346.58
       --------------                             --------------
         LAND SURFACE =         167126.53           LAND SURFACE =           4530.43
            SOIL ZONE =        1825341.40              SOIL ZONE =         110326.15
     UNSATURATED ZONE =        -798834.50       UNSATURATED ZONE =          -1988.80
       SATURATED ZONE =        -728519.58         SATURATED ZONE =          -5521.19

 OVERALL BUDGET ERROR =          -6960.89           BUDGET ERROR =             -2.94


  PERCENT DISCREPANCY =             -0.04    PERCENT DISCREPANCY =             -0.00



1
 SUMMARY VOLUMETRIC BUDGET FOR GSFLOW 
 DATE: 05 26 1981              CUMULATIVE TIME STEP:     238
 MODFLOW STRESS PERIOD      2     CURRENT TIME STEP:     238     ITERATIONS:      12

 -----------------------------------------------------------------------------------

   CUMULATIVE VOLUMES               L**3   RATES FOR THIS TIME STEP           L**3/T
   ------------------                      ------------------------

                                     IN                                         IN
                                     --                                         --
        PRECIPITATION =        1.8252D+07          PRECIPITATION =         284301.98
           STREAMFLOW =                               STREAMFLOW =                  
     GW BOUNDARY FLOW =                         GW BOUNDARY FLOW =                  


                                    OUT                                        OUT
                                    ---                                        ---
   EVAPOTRANSPIRATION =        1.2069D+07     EVAPOTRANSPIRATION =         143477.50
           STREAMFLOW =        6153444.26             STREAMFLOW =          18236.41
     GW BOUNDARY FLOW =         154894.00       GW BOUNDARY FLOW =            648.43

   INFLOWS - OUTFLOWS =        -125204.91     INFLOWS - OUTFLOWS =         121939.65
             --------                                   --------

 TOTAL STORAGE CHANGE =        -118237.70         STORAGE CHANGE =         121941.71
       --------------                             --------------
         LAND SURFACE =          96901.93           LAND SURFACE =          -7055.52
            SOIL ZONE =        1422130.31              SOIL ZONE =         146906.03
     UNSATURATED ZONE =        -860436.07       UNSATURATED ZONE =         -11057.93
       SATURATED ZONE =        -776833.87         SATURATED ZONE =          -6850.86

 OVERALL BUDGET ERROR =          -6967.21           BUDGET ERROR =             -2.07


  PERCENT DISCREPANCY =             -0.04    PERCENT DISCREPANCY =             -0.00



1
 SUMMARY VOLUMETRIC BUDGET FOR GSFLOW 
 DATE: 06 02 1981              CUMULATIVE TIME STEP:     245
 MODFLOW STRESS PERIOD      2     CURRENT TIME STEP:     245     ITERATIONS:      14

 -----------------------------------------------------------------------------------

   CUMULATIVE VOLUMES               L**3   RATES FOR THIS TIME STEP           L**3/T
   ------------------                      ------------------------

                                     IN                                         IN
                                     --                                         --
        PRECIPITATION =        1.8318D+07          PRECIPITATION =          50867.39
           STREAMFLOW =                               STREAMFLOW =                  
     GW BOUNDARY FLOW =                         GW BOUNDARY FLOW =                  


                                    OUT                                        OUT
                                    ---                                        ---
   EVAPOTRANSPIRATION =        1.2872D+07     EVAPOTRANSPIRATION =          65294.06
           STREAMFLOW =        6219786.56             STREAMFLOW =           7490.59
     GW BOUNDARY FLOW =         159428.65       GW BOUNDARY FLOW =            647.38

   INFLOWS - OUTFLOWS =        -933009.62     INFLOWS - OUTFLOWS =         -22564.64
             --------                                   --------

 TOTAL STORAGE CHANGE =        -926004.92         STORAGE CHANGE =         -22552.87
       --------------                             --------------
         LAND SURFACE =          61824.55           LAND SURFACE =          30829.61
            SOIL ZONE =         795925.51              SOIL ZONE =         -31138.53
     UNSATURATED ZONE =        -949592.29       UNSATURATED ZONE =         -13739.51
       SATURATED ZONE =        -834162.69         SATURATED ZONE =          -8504.44

 OVERALL BUDGET ERROR =          -7004.69           BUDGET ERROR =            -11.78


  PERCENT DISCREPANCY =             -0.04    PERCENT DISCREPANCY =             -0.02



1
 SUMMARY VOLUMETRIC BUDGET FOR GSFLOW 
 DATE: 06 09 1981              CUMULATIVE TIME STEP:     252
 MODFLOW STRESS PERIOD      2     CURRENT TIME STEP:     252     ITERATIONS:      13

 -----------------------------------------------------------------------------------

   CUMULATIVE VOLUMES               L**3   RATES FOR THIS TIME STEP           L**3/T
   ------------------                      ------------------------

                                     IN                                         IN
                                     --                                         --
        PRECIPITATION =        1.8318D+07          PRECIPITATION =                  
           STREAMFLOW =                               STREAMFLOW =                  
     GW BOUNDARY FLOW =                         GW BOUNDARY FLOW =                  


                                    OUT                                        OUT
                                    ---                                        ---
   EVAPOTRANSPIRATION =        1.3342D+07     EVAPOTRANSPIRATION =          48771.33
           STREAMFLOW =        6266552.37             STREAMFLOW =           6331.76
     GW BOUNDARY FLOW =         163958.31       GW BOUNDARY FLOW =            646.94

   INFLOWS - OUTFLOWS =       -1454686.19     INFLOWS - OUTFLOWS =         -55750.03
             --------                                   --------

 TOTAL STORAGE CHANGE =       -1447642.17         STORAGE CHANGE =         -55738.31
       --------------                             --------------
         LAND SURFACE =           8254.44           LAND SURFACE =          -1595.45
            SOIL ZONE =         483576.63              SOIL ZONE =         -31947.29
     UNSATURATED ZONE =       -1043464.70       UNSATURATED ZONE =         -13203.20
       SATURATED ZONE =        -896008.54         SATURATED ZONE =          -8992.38

 OVERALL BUDGET ERROR =          -7044.02           BUDGET ERROR =            -11.72


  PERCENT DISCREPANCY =             -0.04    PERCENT DISCREPANCY =             -0.02



1
 SUMMARY VOLUMETRIC BUDGET FOR GSFLOW 
 DATE: 06 16 1981              CUMULATIVE TIME STEP:     259
 MODFLOW STRESS PERIOD      2     CURRENT TIME STEP:     259     ITERATIONS:      12

 -----------------------------------------------------------------------------------

   CUMULATIVE VOLUMES               L**3   RATES FOR THIS TIME STEP           L**3/T
   ------------------                      ------------------------

                                     IN                                         IN
                                     --                                         --
        PRECIPITATION =        1.8318D+07          PRECIPITATION =                  
           STREAMFLOW =                               STREAMFLOW =                  
     GW BOUNDARY FLOW =                         GW BOUNDARY FLOW =                  


                                    OUT                                        OUT
                                    ---                                        ---
   EVAPOTRANSPIRATION =        1.3528D+07     EVAPOTRANSPIRATION =          44143.55
           STREAMFLOW =        6309852.49             STREAMFLOW =           6122.55
     GW BOUNDARY FLOW =         168486.00       GW BOUNDARY FLOW =            646.73

   INFLOWS - OUTFLOWS =       -1687588.65     INFLOWS - OUTFLOWS =         -50912.83
             --------                                   --------

 TOTAL STORAGE CHANGE =       -1680510.54         STORAGE CHANGE =         -50909.72
       --------------                             --------------
         LAND SURFACE =           3426.51           LAND SURFACE =           -943.67
            SOIL ZONE =         409650.71              SOIL ZONE =         -28077.63
     UNSATURATED ZONE =       -1133677.15       UNSATURATED ZONE =         -12605.75
       SATURATED ZONE =        -959910.61         SATURATED ZONE =          -9282.66

 OVERALL BUDGET ERROR =          -7078.11           BUDGET ERROR =             -3.12


  PERCENT DISCREPANCY =             -0.04    PERCENT DISCREPANCY =             -0.01



1
 SUMMARY VOLUMETRIC BUDGET FOR GSFLOW 
 DATE: 06 23 1981              CUMULATIVE TIME STEP:     266
 MODFLOW STRESS PERIOD      2     CURRENT TIME STEP:     266     ITERATIONS:      14

 -----------------------------------------------------------------------------------

   CUMULATIVE VOLUMES               L**3   RATES FOR THIS TIME STEP           L**3/T
   ------------------                      ------------------------

                                     IN                                         IN
                                     --                                         --
        PRECIPITATION =        1.8318D+07          PRECIPITATION =                  
           STREAMFLOW =                               STREAMFLOW =                  
     GW BOUNDARY FLOW =                         GW BOUNDARY FLOW =                  


                                    OUT                                        OUT
                                    ---                                        ---
   EVAPOTRANSPIRATION =        1.3807D+07     EVAPOTRANSPIRATION =          33109.61
           STREAMFLOW =        6351877.88             STREAMFLOW =           5941.95
     GW BOUNDARY FLOW =         173012.46       GW BOUNDARY FLOW =            646.56

   INFLOWS - OUTFLOWS =       -2013417.57     INFLOWS - OUTFLOWS =         -39698.12
             --------                                   --------

 TOTAL STORAGE CHANGE =       -2006321.13         STORAGE CHANGE =         -39700.11
       --------------                             --------------
         LAND SURFACE =                             LAND SURFACE =                  
            SOIL ZONE =         239333.17              SOIL ZONE =         -18090.40
     UNSATURATED ZONE =       -1218970.14       UNSATURATED ZONE =         -11757.79
       SATURATED ZONE =       -1026684.15         SATURATED ZONE =          -9851.92

 OVERALL BUDGET ERROR =          -7096.44           BUDGET ERROR =              1.99


  PERCENT DISCREPANCY =             -0.03    PERCENT DISCREPANCY =              0.01



1
 SUMMARY VOLUMETRIC BUDGET FOR GSFLOW 
 DATE: 06 30 1981              CUMULATIVE TIME STEP:     273
 MODFLOW STRESS PERIOD      2     CURRENT TIME STEP:     273     ITERATIONS:       9

 -----------------------------------------------------------------------------------

   CUMULATIVE VOLUMES               L**3   RATES FOR THIS TIME STEP           L**3/T
   ------------------                      ------------------------

                                     IN                                         IN
[...]
                                    ---                                        ---
   EVAPOTRANSPIRATION =        2.8836D+08     EVAPOTRANSPIRATION =          41349.94
           STREAMFLOW =        1.8087D+08             STREAMFLOW =           6899.59
     GW BOUNDARY FLOW =        3735684.43       GW BOUNDARY FLOW =            650.71

   INFLOWS - OUTFLOWS =       -7906004.08     INFLOWS - OUTFLOWS =         -48900.25
             --------                                   --------

 TOTAL STORAGE CHANGE =       -7798285.30         STORAGE CHANGE =         -48917.39
       --------------                             --------------
         LAND SURFACE =          84521.90           LAND SURFACE =          -4963.73
            SOIL ZONE =         222749.34              SOIL ZONE =         -22637.88
     UNSATURATED ZONE =        5290605.20       UNSATURATED ZONE =         -27605.26
       SATURATED ZONE =       -1.3396D+07         SATURATED ZONE =           6289.49

 OVERALL BUDGET ERROR =        -107718.78           BUDGET ERROR =             17.14


  PERCENT DISCREPANCY =             -0.02    PERCENT DISCREPANCY =              0.04



1
 SUMMARY VOLUMETRIC BUDGET FOR GSFLOW 
 DATE: 07 30 1996              CUMULATIVE TIME STEP:    5782
 MODFLOW STRESS PERIOD      2     CURRENT TIME STEP:    5782     ITERATIONS:      13

 -----------------------------------------------------------------------------------

   CUMULATIVE VOLUMES               L**3   RATES FOR THIS TIME STEP           L**3/T
   ------------------                      ------------------------

                                     IN                                         IN
                                     --                                         --
        PRECIPITATION =        4.6511D+08          PRECIPITATION =                  
           STREAMFLOW =                               STREAMFLOW =                  
     GW BOUNDARY FLOW =                         GW BOUNDARY FLOW =                  


                                    OUT                                        OUT
                                    ---                                        ---
   EVAPOTRANSPIRATION =        2.8862D+08     EVAPOTRANSPIRATION =          25445.02
           STREAMFLOW =        1.8091D+08             STREAMFLOW =           6744.67
     GW BOUNDARY FLOW =        3740237.79       GW BOUNDARY FLOW =            650.29

   INFLOWS - OUTFLOWS =       -8163219.69     INFLOWS - OUTFLOWS =         -32839.97
             --------                                   --------

 TOTAL STORAGE CHANGE =       -8055601.77         STORAGE CHANGE =         -32861.05
       --------------                             --------------
         LAND SURFACE =          55427.09           LAND SURFACE =          -3488.58
            SOIL ZONE =         142339.02              SOIL ZONE =          -8384.77
     UNSATURATED ZONE =        5103068.12       UNSATURATED ZONE =         -26301.32
       SATURATED ZONE =       -1.3356D+07         SATURATED ZONE =           5313.61

 OVERALL BUDGET ERROR =        -107617.92           BUDGET ERROR =             21.08


  PERCENT DISCREPANCY =             -0.02    PERCENT DISCREPANCY =              0.06



1
 SUMMARY VOLUMETRIC BUDGET FOR GSFLOW 
 DATE: 08 06 1996              CUMULATIVE TIME STEP:    5789
 MODFLOW STRESS PERIOD      2     CURRENT TIME STEP:    5789     ITERATIONS:      13

 -----------------------------------------------------------------------------------

   CUMULATIVE VOLUMES               L**3   RATES FOR THIS TIME STEP           L**3/T
   ------------------                      ------------------------

                                     IN                                         IN
                                     --                                         --
        PRECIPITATION =        4.6511D+08          PRECIPITATION =                  
           STREAMFLOW =                               STREAMFLOW =                  
     GW BOUNDARY FLOW =                         GW BOUNDARY FLOW =                  


                                    OUT                                        OUT
                                    ---                                        ---
   EVAPOTRANSPIRATION =        2.8876D+08     EVAPOTRANSPIRATION =          18635.81
           STREAMFLOW =        1.8096D+08             STREAMFLOW =           6544.32
     GW BOUNDARY FLOW =        3744788.04       GW BOUNDARY FLOW =            649.92

   INFLOWS - OUTFLOWS =       -8350387.53     INFLOWS - OUTFLOWS =         -25830.05
             --------                                   --------

 TOTAL STORAGE CHANGE =       -8242906.65         STORAGE CHANGE =         -25860.53
       --------------                             --------------
         LAND SURFACE =          37080.11           LAND SURFACE =          -2254.04
            SOIL ZONE =         119091.45              SOIL ZONE =          -2904.21
     UNSATURATED ZONE =        4921213.33       UNSATURATED ZONE =         -25493.41
       SATURATED ZONE =       -1.3320D+07         SATURATED ZONE =           4791.13

 OVERALL BUDGET ERROR =        -107480.88           BUDGET ERROR =             30.48


  PERCENT DISCREPANCY =             -0.02    PERCENT DISCREPANCY =              0.12



1
 SUMMARY VOLUMETRIC BUDGET FOR GSFLOW 
 DATE: 08 13 1996              CUMULATIVE TIME STEP:    5796
 MODFLOW STRESS PERIOD      2     CURRENT TIME STEP:    5796     ITERATIONS:      14

 -----------------------------------------------------------------------------------

   CUMULATIVE VOLUMES               L**3   RATES FOR THIS TIME STEP           L**3/T
   ------------------                      ------------------------

                                     IN                                         IN
                                     --                                         --
        PRECIPITATION =        4.6531D+08          PRECIPITATION =          54456.73
           STREAMFLOW =                               STREAMFLOW =                  
     GW BOUNDARY FLOW =                         GW BOUNDARY FLOW =                  


                                    OUT                                        OUT
                                    ---                                        ---
   EVAPOTRANSPIRATION =        2.8893D+08     EVAPOTRANSPIRATION =          33310.68
           STREAMFLOW =        1.8101D+08             STREAMFLOW =           7744.87
     GW BOUNDARY FLOW =        3749337.36       GW BOUNDARY FLOW =            649.95

   INFLOWS - OUTFLOWS =       -8373743.89     INFLOWS - OUTFLOWS =          12751.23
             --------                                   --------

 TOTAL STORAGE CHANGE =       -8266335.81         STORAGE CHANGE =          12742.79
       --------------                             --------------
         LAND SURFACE =          53177.14           LAND SURFACE =          -2312.81
            SOIL ZONE =         222867.96              SOIL ZONE =          35336.75
     UNSATURATED ZONE =        4748150.61       UNSATURATED ZONE =         -24087.98
       SATURATED ZONE =       -1.3291D+07         SATURATED ZONE =           3806.83

 OVERALL BUDGET ERROR =        -107408.08           BUDGET ERROR =              8.44


  PERCENT DISCREPANCY =             -0.02    PERCENT DISCREPANCY =              0.02



1
 SUMMARY VOLUMETRIC BUDGET FOR GSFLOW 
 DATE: 08 20 1996              CUMULATIVE TIME STEP:    5803
 MODFLOW STRESS PERIOD      2     CURRENT TIME STEP:    5803     ITERATIONS:      13

 -----------------------------------------------------------------------------------

   CUMULATIVE VOLUMES               L**3   RATES FOR THIS TIME STEP           L**3/T
   ------------------                      ------------------------

                                     IN                                         IN
                                     --                                         --
        PRECIPITATION =        4.6531D+08          PRECIPITATION =                  
           STREAMFLOW =                               STREAMFLOW =                  
     GW BOUNDARY FLOW =                         GW BOUNDARY FLOW =                  


                                    OUT                                        OUT
                                    ---                                        ---
   EVAPOTRANSPIRATION =        2.8913D+08     EVAPOTRANSPIRATION =          16725.50
           STREAMFLOW =        1.8105D+08             STREAMFLOW =           6351.71
     GW BOUNDARY FLOW =        3753885.62       GW BOUNDARY FLOW =            649.60

   INFLOWS - OUTFLOWS =       -8621362.26     INFLOWS - OUTFLOWS =         -23726.81
             --------                                   --------

 TOTAL STORAGE CHANGE =       -8514079.36         STORAGE CHANGE =         -23749.08
       --------------                             --------------
         LAND SURFACE =           6933.74           LAND SURFACE =          -1297.55
            SOIL ZONE =         163298.81              SOIL ZONE =          -2276.62
     UNSATURATED ZONE =        4583749.26       UNSATURATED ZONE =         -23053.96
       SATURATED ZONE =       -1.3268D+07         SATURATED ZONE =           2879.05

 OVERALL BUDGET ERROR =        -107282.90           BUDGET ERROR =             22.27


  PERCENT DISCREPANCY =             -0.02    PERCENT DISCREPANCY =              0.09



1
 SUMMARY VOLUMETRIC BUDGET FOR GSFLOW 
 DATE: 08 27 1996              CUMULATIVE TIME STEP:    5810
 MODFLOW STRESS PERIOD      2     CURRENT TIME STEP:    5810     ITERATIONS:      13

 -----------------------------------------------------------------------------------

   CUMULATIVE VOLUMES               L**3   RATES FOR THIS TIME STEP           L**3/T
   ------------------                      ------------------------

                                     IN                                         IN
                                     --                                         --
        PRECIPITATION =        4.6531D+08          PRECIPITATION =                  
           STREAMFLOW =                               STREAMFLOW =                  
     GW BOUNDARY FLOW =                         GW BOUNDARY FLOW =                  


                                    OUT                                        OUT
                                    ---                                        ---
   EVAPOTRANSPIRATION =        2.8926D+08     EVAPOTRANSPIRATION =          15210.58
           STREAMFLOW =        1.8110D+08             STREAMFLOW =           6193.09
     GW BOUNDARY FLOW =        3758431.51       GW BOUNDARY FLOW =            649.27

   INFLOWS - OUTFLOWS =       -8806025.19     INFLOWS - OUTFLOWS =         -22052.94
             --------                                   --------

 TOTAL STORAGE CHANGE =       -8698844.85         STORAGE CHANGE =         -22078.50
       --------------                             --------------
         LAND SURFACE =           1244.67           LAND SURFACE =           -272.68
            SOIL ZONE =         124419.81              SOIL ZONE =          -1867.80
     UNSATURATED ZONE =        4427459.00       UNSATURATED ZONE =         -21936.03
       SATURATED ZONE =       -1.3252D+07         SATURATED ZONE =           1998.01

 OVERALL BUDGET ERROR =        -107180.34           BUDGET ERROR =             25.57


  PERCENT DISCREPANCY =             -0.02    PERCENT DISCREPANCY =              0.12



1
 SUMMARY VOLUMETRIC BUDGET FOR GSFLOW 
 DATE: 09 03 1996              CUMULATIVE TIME STEP:    5817
 MODFLOW STRESS PERIOD      2     CURRENT TIME STEP:    5817     ITERATIONS:      12

 -----------------------------------------------------------------------------------

   CUMULATIVE VOLUMES               L**3   RATES FOR THIS TIME STEP           L**3/T
   ------------------                      ------------------------

                                     IN                                         IN
                                     --                                         --
        PRECIPITATION =        4.6531D+08          PRECIPITATION =                  
           STREAMFLOW =                               STREAMFLOW =                  
     GW BOUNDARY FLOW =                         GW BOUNDARY FLOW =                  


                                    OUT                                        OUT
                                    ---                                        ---
   EVAPOTRANSPIRATION =        2.8937D+08     EVAPOTRANSPIRATION =          12386.95
           STREAMFLOW =        1.8114D+08             STREAMFLOW =           6093.39
     GW BOUNDARY FLOW =        3762974.90       GW BOUNDARY FLOW =            648.89

   INFLOWS - OUTFLOWS =       -8955461.47     INFLOWS - OUTFLOWS =         -19129.23
             --------                                   --------

 TOTAL STORAGE CHANGE =       -8848449.43         STORAGE CHANGE =         -19147.77
       --------------                             --------------
         LAND SURFACE =            584.39           LAND SURFACE =            -75.06
            SOIL ZONE =         114124.11              SOIL ZONE =            634.18
     UNSATURATED ZONE =        4277211.10       UNSATURATED ZONE =         -21210.17
       SATURATED ZONE =       -1.3240D+07         SATURATED ZONE =           1503.28

 OVERALL BUDGET ERROR =        -107012.04           BUDGET ERROR =             18.54


  PERCENT DISCREPANCY =             -0.02    PERCENT DISCREPANCY =              0.10



1
 SUMMARY VOLUMETRIC BUDGET FOR GSFLOW 
 DATE: 09 10 1996              CUMULATIVE TIME STEP:    5824
 MODFLOW STRESS PERIOD      2     CURRENT TIME STEP:    5824     ITERATIONS:      12

 -----------------------------------------------------------------------------------

   CUMULATIVE VOLUMES               L**3   RATES FOR THIS TIME STEP           L**3/T
   ------------------                      ------------------------

                                     IN                                         IN
                                     --                                         --
        PRECIPITATION =        4.6531D+08          PRECIPITATION =                  
           STREAMFLOW =                               STREAMFLOW =                  
     GW BOUNDARY FLOW =                         GW BOUNDARY FLOW =                  


                                    OUT                                        OUT
                                    ---                                        ---
   EVAPOTRANSPIRATION =        2.8945D+08     EVAPOTRANSPIRATION =          13303.70
           STREAMFLOW =        1.8118D+08             STREAMFLOW =           6001.96
     GW BOUNDARY FLOW =        3767515.67       GW BOUNDARY FLOW =            648.52

   INFLOWS - OUTFLOWS =       -9085252.55     INFLOWS - OUTFLOWS =         -19954.19
             --------                                   --------

 TOTAL STORAGE CHANGE =       -8978417.19         STORAGE CHANGE =         -19981.98
       --------------                             --------------
         LAND SURFACE =            141.93           LAND SURFACE =            -69.29
            SOIL ZONE =         121731.36              SOIL ZONE =           -411.01
     UNSATURATED ZONE =        4129639.72       UNSATURATED ZONE =         -20879.49
       SATURATED ZONE =       -1.3230D+07         SATURATED ZONE =           1377.81

 OVERALL BUDGET ERROR =        -106835.36           BUDGET ERROR =             27.79


  PERCENT DISCREPANCY =             -0.02    PERCENT DISCREPANCY =              0.14



1
 SUMMARY VOLUMETRIC BUDGET FOR GSFLOW 
 DATE: 09 17 1996              CUMULATIVE TIME STEP:    5831
 MODFLOW STRESS PERIOD      2     CURRENT TIME STEP:    5831     ITERATIONS:      12

 -----------------------------------------------------------------------------------

   CUMULATIVE VOLUMES               L**3   RATES FOR THIS TIME STEP           L**3/T
   ------------------                      ------------------------

                                     IN                                         IN
                                     --                                         --
        PRECIPITATION =        4.6637D+08          PRECIPITATION =                  
           STREAMFLOW =                               STREAMFLOW =                  
     GW BOUNDARY FLOW =                         GW BOUNDARY FLOW =                  


                                    OUT                                        OUT
                                    ---                                        ---
   EVAPOTRANSPIRATION =        2.8963D+08     EVAPOTRANSPIRATION =          63860.91
           STREAMFLOW =        1.8125D+08             STREAMFLOW =          10052.59
     GW BOUNDARY FLOW =        3772055.81       GW BOUNDARY FLOW =            648.93

   INFLOWS - OUTFLOWS =       -8286871.73     INFLOWS - OUTFLOWS =         -74562.43
             --------                                   --------

 TOTAL STORAGE CHANGE =       -8180217.14         STORAGE CHANGE =         -74581.86
       --------------                             --------------
         LAND SURFACE =           2829.02           LAND SURFACE =         -35615.32
            SOIL ZONE =        1050704.59              SOIL ZONE =         -19676.37
     UNSATURATED ZONE =        3987595.92       UNSATURATED ZONE =         -19900.37
       SATURATED ZONE =       -1.3221D+07         SATURATED ZONE =            610.20

 OVERALL BUDGET ERROR =        -106654.60           BUDGET ERROR =             19.43


  PERCENT DISCREPANCY =             -0.02    PERCENT DISCREPANCY =              0.03



1
 SUMMARY VOLUMETRIC BUDGET FOR GSFLOW 
 DATE: 09 24 1996              CUMULATIVE TIME STEP:    5838
 MODFLOW STRESS PERIOD      2     CURRENT TIME STEP:    5838     ITERATIONS:      12

 -----------------------------------------------------------------------------------

   CUMULATIVE VOLUMES               L**3   RATES FOR THIS TIME STEP           L**3/T
   ------------------                      ------------------------

                                     IN                                         IN
                                     --                                         --
        PRECIPITATION =        4.6637D+08          PRECIPITATION =                  
           STREAMFLOW =                               STREAMFLOW =                  
     GW BOUNDARY FLOW =                         GW BOUNDARY FLOW =                  


                                    OUT                                        OUT
                                    ---                                        ---
   EVAPOTRANSPIRATION =        2.9012D+08     EVAPOTRANSPIRATION =          55315.01
           STREAMFLOW =        1.8130D+08             STREAMFLOW =           6398.28
     GW BOUNDARY FLOW =        3776594.35       GW BOUNDARY FLOW =            648.02

   INFLOWS - OUTFLOWS =       -8826398.45     INFLOWS - OUTFLOWS =         -62361.31
             --------                                   --------

 TOTAL STORAGE CHANGE =       -8719966.45         STORAGE CHANGE =         -62380.36
       --------------                             --------------
         LAND SURFACE =                             LAND SURFACE =                  
            SOIL ZONE =         648261.84              SOIL ZONE =         -43263.91
     UNSATURATED ZONE =        3851908.19       UNSATURATED ZONE =         -19200.53
       SATURATED ZONE =       -1.3220D+07         SATURATED ZONE =             84.08

 OVERALL BUDGET ERROR =        -106432.00           BUDGET ERROR =             19.05


  PERCENT DISCREPANCY =             -0.02    PERCENT DISCREPANCY =              0.03



