1
 SUMMARY VOLUMETRIC BUDGET FOR GSFLOW 
 DATE: 10 07 1980              CUMULATIVE TIME STEP:       7
 MODFLOW STRESS PERIOD      2     CURRENT TIME STEP:       7     ITERATIONS:       6

 -----------------------------------------------------------------------------------

   CUMULATIVE VOLUMES               L**3   RATES FOR THIS TIME STEP           L**3/T
   ------------------                      ------------------------

                                     IN                                         IN
                                     --                                         --
        PRECIPITATION =                            PRECIPITATION =                  
           STREAMFLOW =                               STREAMFLOW =                  
     GW BOUNDARY FLOW =                         GW BOUNDARY FLOW =                  


                                    OUT                                        OUT
                                    ---                                        ---
   EVAPOTRANSPIRATION =          57671.86     EVAPOTRANSPIRATION =           9507.30
           STREAMFLOW =          42957.50             STREAMFLOW =           6065.76
     GW BOUNDARY FLOW =           4541.44       GW BOUNDARY FLOW =            648.70

   INFLOWS - OUTFLOWS =        -105170.80     INFLOWS - OUTFLOWS =         -16221.76
             --------                                   --------

 TOTAL STORAGE CHANGE =        -104775.19         STORAGE CHANGE =         -16161.17
       --------------                             --------------
         LAND SURFACE =                             LAND SURFACE =                  
            SOIL ZONE =          52844.12              SOIL ZONE =           6189.01
     UNSATURATED ZONE =        -144779.04       UNSATURATED ZONE =         -20361.32
       SATURATED ZONE =         -12840.27         SATURATED ZONE =          -1988.86

 OVERALL BUDGET ERROR =           -395.61           BUDGET ERROR =            -60.59


  PERCENT DISCREPANCY =             -0.38    PERCENT DISCREPANCY =             -0.37



1
 SUMMARY VOLUMETRIC BUDGET FOR GSFLOW 
 DATE: 10 14 1980              CUMULATIVE TIME STEP:      14
 MODFLOW STRESS PERIOD      2     CURRENT TIME STEP:      14     ITERATIONS:       6

 -----------------------------------------------------------------------------------

   CUMULATIVE VOLUMES               L**3   RATES FOR THIS TIME STEP           L**3/T
   ------------------                      ------------------------

                                     IN                                         IN
                                     --                                         --
        PRECIPITATION =         650780.39          PRECIPITATION =         164754.68
           STREAMFLOW =                               STREAMFLOW =                  
     GW BOUNDARY FLOW =                         GW BOUNDARY FLOW =                  


                                    OUT                                        OUT
                                    ---                                        ---
   EVAPOTRANSPIRATION =         152398.43     EVAPOTRANSPIRATION =          10627.99
           STREAMFLOW =          94383.94             STREAMFLOW =           7681.18
     GW BOUNDARY FLOW =           9082.95       GW BOUNDARY FLOW =            648.93

   INFLOWS - OUTFLOWS =         394915.07     INFLOWS - OUTFLOWS =         145796.57
             --------                                   --------

 TOTAL STORAGE CHANGE =         395752.95         STORAGE CHANGE =         145858.68
       --------------                             --------------
         LAND SURFACE =         183752.11           LAND SURFACE =         130549.80
            SOIL ZONE =         524075.37              SOIL ZONE =          37341.20
     UNSATURATED ZONE =        -284495.73       UNSATURATED ZONE =         -19624.54
       SATURATED ZONE =         -27578.80         SATURATED ZONE =          -2407.79

 OVERALL BUDGET ERROR =           -837.87           BUDGET ERROR =            -62.11


  PERCENT DISCREPANCY =             -0.13    PERCENT DISCREPANCY =             -0.04



1
 SUMMARY VOLUMETRIC BUDGET FOR GSFLOW 
 DATE: 10 21 1980              CUMULATIVE TIME STEP:      21
 MODFLOW STRESS PERIOD      2     CURRENT TIME STEP:      21     ITERATIONS:       6

 -----------------------------------------------------------------------------------

   CUMULATIVE VOLUMES               L**3   RATES FOR THIS TIME STEP           L**3/T
   ------------------                      ------------------------

                                     IN                                         IN
                                     --                                         --
        PRECIPITATION =         733156.23          PRECIPITATION =                  
           STREAMFLOW =                               STREAMFLOW =                  
     GW BOUNDARY FLOW =                         GW BOUNDARY FLOW =                  


                                    OUT                                        OUT
                                    ---                                        ---
   EVAPOTRANSPIRATION =         404776.94     EVAPOTRANSPIRATION =          37744.84
           STREAMFLOW =         145026.51             STREAMFLOW =           6765.63
     GW BOUNDARY FLOW =          13624.64       GW BOUNDARY FLOW =            648.72

   INFLOWS - OUTFLOWS =         169728.14     INFLOWS - OUTFLOWS =         -45159.19
             --------                                   --------

 TOTAL STORAGE CHANGE =         171018.74         STORAGE CHANGE =         -45090.00
       --------------                             --------------
         LAND SURFACE =                             LAND SURFACE =                  
            SOIL ZONE =         636317.93              SOIL ZONE =         -23229.62
     UNSATURATED ZONE =        -418704.49       UNSATURATED ZONE =         -18825.62
       SATURATED ZONE =         -46594.70         SATURATED ZONE =          -3034.76

 OVERALL BUDGET ERROR =          -1290.60           BUDGET ERROR =            -69.20


  PERCENT DISCREPANCY =             -0.18    PERCENT DISCREPANCY =             -0.15



1
 SUMMARY VOLUMETRIC BUDGET FOR GSFLOW 
 DATE: 10 28 1980              CUMULATIVE TIME STEP:      28
 MODFLOW STRESS PERIOD      2     CURRENT TIME STEP:      28     ITERATIONS:       6

 -----------------------------------------------------------------------------------

   CUMULATIVE VOLUMES               L**3   RATES FOR THIS TIME STEP           L**3/T
   ------------------                      ------------------------

                                     IN                                         IN
                                     --                                         --
        PRECIPITATION =        1070899.96          PRECIPITATION =                  
           STREAMFLOW =                               STREAMFLOW =                  
     GW BOUNDARY FLOW =                         GW BOUNDARY FLOW =                  


                                    OUT                                        OUT
                                    ---                                        ---
   EVAPOTRANSPIRATION =         585727.16     EVAPOTRANSPIRATION =          24794.04
           STREAMFLOW =         197753.90             STREAMFLOW =           7617.23
     GW BOUNDARY FLOW =          18165.67       GW BOUNDARY FLOW =            648.76

   INFLOWS - OUTFLOWS =         269253.24     INFLOWS - OUTFLOWS =         -33060.02
             --------                                   --------

 TOTAL STORAGE CHANGE =         271059.88         STORAGE CHANGE =         -32983.25
       --------------                             --------------
         LAND SURFACE =          20573.21           LAND SURFACE =         -29874.96
            SOIL ZONE =         867283.45              SOIL ZONE =          18441.34
     UNSATURATED ZONE =        -547457.80       UNSATURATED ZONE =         -18034.77
       SATURATED ZONE =         -69338.99         SATURATED ZONE =          -3514.86

 OVERALL BUDGET ERROR =          -1806.64           BUDGET ERROR =            -76.77


  PERCENT DISCREPANCY =             -0.17    PERCENT DISCREPANCY =             -0.23



1
 SUMMARY VOLUMETRIC BUDGET FOR GSFLOW 
 DATE: 11 04 1980              CUMULATIVE TIME STEP:      35
 MODFLOW STRESS PERIOD      2     CURRENT TIME STEP:      35     ITERATIONS:       6

 -----------------------------------------------------------------------------------

   CUMULATIVE VOLUMES               L**3   RATES FOR THIS TIME STEP           L**3/T
   ------------------                      ------------------------

                                     IN                                         IN
                                     --                                         --
        PRECIPITATION =        1070899.96          PRECIPITATION =                  
           STREAMFLOW =                               STREAMFLOW =                  
     GW BOUNDARY FLOW =                         GW BOUNDARY FLOW =                  


                                    OUT                                        OUT
                                    ---                                        ---
   EVAPOTRANSPIRATION =         882360.89     EVAPOTRANSPIRATION =          35783.14
           STREAMFLOW =         247977.75             STREAMFLOW =           6777.27
     GW BOUNDARY FLOW =          22706.30       GW BOUNDARY FLOW =            648.60

   INFLOWS - OUTFLOWS =         -82144.98     INFLOWS - OUTFLOWS =         -43209.00
             --------                                   --------

 TOTAL STORAGE CHANGE =         -79777.54         STORAGE CHANGE =         -43127.16
       --------------                             --------------
         LAND SURFACE =                             LAND SURFACE =                  
            SOIL ZONE =         687866.86              SOIL ZONE =         -21605.02
     UNSATURATED ZONE =        -671017.66       UNSATURATED ZONE =         -17371.06
       SATURATED ZONE =         -96626.74         SATURATED ZONE =          -4151.08

 OVERALL BUDGET ERROR =          -2367.44           BUDGET ERROR =            -81.84


  PERCENT DISCREPANCY =             -0.21    PERCENT DISCREPANCY =             -0.19



1
 SUMMARY VOLUMETRIC BUDGET FOR GSFLOW 
 DATE: 11 11 1980              CUMULATIVE TIME STEP:      42
 MODFLOW STRESS PERIOD      2     CURRENT TIME STEP:      42     ITERATIONS:       7

 -----------------------------------------------------------------------------------

   CUMULATIVE VOLUMES               L**3   RATES FOR THIS TIME STEP           L**3/T
   ------------------                      ------------------------

                                     IN                                         IN
                                     --                                         --
        PRECIPITATION =        1573759.34          PRECIPITATION =         255182.10
           STREAMFLOW =                               STREAMFLOW =                  
     GW BOUNDARY FLOW =                         GW BOUNDARY FLOW =                  


                                    OUT                                        OUT
                                    ---                                        ---
   EVAPOTRANSPIRATION =        1098613.47     EVAPOTRANSPIRATION =          14581.62
           STREAMFLOW =         302428.04             STREAMFLOW =          10325.26
     GW BOUNDARY FLOW =          27246.80       GW BOUNDARY FLOW =            648.80

   INFLOWS - OUTFLOWS =         145471.03     INFLOWS - OUTFLOWS =         229626.41
             --------                                   --------

 TOTAL STORAGE CHANGE =         148342.54         STORAGE CHANGE =         229683.60
       --------------                             --------------
         LAND SURFACE =          76836.74           LAND SURFACE =          76836.74
            SOIL ZONE =         987935.46              SOIL ZONE =         173623.95
     UNSATURATED ZONE =        -789651.27       UNSATURATED ZONE =         -16594.06
       SATURATED ZONE =        -126778.39         SATURATED ZONE =          -4183.03

 OVERALL BUDGET ERROR =          -2871.51           BUDGET ERROR =            -57.18


  PERCENT DISCREPANCY =             -0.18    PERCENT DISCREPANCY =             -0.02



1
 SUMMARY VOLUMETRIC BUDGET FOR GSFLOW 
 DATE: 11 18 1980              CUMULATIVE TIME STEP:      49
 MODFLOW STRESS PERIOD      2     CURRENT TIME STEP:      49     ITERATIONS:       6

 -----------------------------------------------------------------------------------

   CUMULATIVE VOLUMES               L**3   RATES FOR THIS TIME STEP           L**3/T
   ------------------                      ------------------------

                                     IN                                         IN
                                     --                                         --
        PRECIPITATION =        1573759.34          PRECIPITATION =                  
           STREAMFLOW =                               STREAMFLOW =                  
     GW BOUNDARY FLOW =                         GW BOUNDARY FLOW =                  


                                    OUT                                        OUT
                                    ---                                        ---
   EVAPOTRANSPIRATION =        1194495.46     EVAPOTRANSPIRATION =          22091.59
           STREAMFLOW =         362236.02             STREAMFLOW =           8955.00
     GW BOUNDARY FLOW =          31788.27       GW BOUNDARY FLOW =            648.80

   INFLOWS - OUTFLOWS =         -14760.42     INFLOWS - OUTFLOWS =         -31695.40
             --------                                   --------

 TOTAL STORAGE CHANGE =         -11276.07         STORAGE CHANGE =         -31606.86
       --------------                             --------------
         LAND SURFACE =           5398.38           LAND SURFACE =          -7586.22
            SOIL ZONE =        1046863.77              SOIL ZONE =          -3159.51
     UNSATURATED ZONE =        -903682.68       UNSATURATED ZONE =         -16023.67
       SATURATED ZONE =        -159855.54         SATURATED ZONE =          -4837.45

 OVERALL BUDGET ERROR =          -3484.35           BUDGET ERROR =            -88.54


  PERCENT DISCREPANCY =             -0.22    PERCENT DISCREPANCY =             -0.28



1
 SUMMARY VOLUMETRIC BUDGET FOR GSFLOW 
 DATE: 11 25 1980              CUMULATIVE TIME STEP:      56
 MODFLOW STRESS PERIOD      2     CURRENT TIME STEP:      56     ITERATIONS:       7

 -----------------------------------------------------------------------------------

   CUMULATIVE VOLUMES               L**3   RATES FOR THIS TIME STEP           L**3/T
   ------------------                      ------------------------

                                     IN                                         IN
                                     --                                         --
        PRECIPITATION =        1648813.76          PRECIPITATION =                  
           STREAMFLOW =                               STREAMFLOW =                  
     GW BOUNDARY FLOW =                         GW BOUNDARY FLOW =                  


                                    OUT                                        OUT
                                    ---                                        ---
   EVAPOTRANSPIRATION =        1277904.40     EVAPOTRANSPIRATION =           9312.58
           STREAMFLOW =         426262.85             STREAMFLOW =           9382.40
     GW BOUNDARY FLOW =          36330.12       GW BOUNDARY FLOW =            648.86

   INFLOWS - OUTFLOWS =         -91683.61     INFLOWS - OUTFLOWS =         -19343.83
             --------                                   --------

 TOTAL STORAGE CHANGE =         -87584.43         STORAGE CHANGE =         -19277.48
       --------------                             --------------
         LAND SURFACE =          53187.47           LAND SURFACE =          -9260.11
            SOIL ZONE =        1068730.03              SOIL ZONE =          10794.07
     UNSATURATED ZONE =       -1013395.77       UNSATURATED ZONE =         -15406.23
       SATURATED ZONE =        -196106.15         SATURATED ZONE =          -5405.21

 OVERALL BUDGET ERROR =          -4099.18           BUDGET ERROR =            -66.35


  PERCENT DISCREPANCY =             -0.24    PERCENT DISCREPANCY =             -0.34



1
 SUMMARY VOLUMETRIC BUDGET FOR GSFLOW 
 DATE: 12 02 1980              CUMULATIVE TIME STEP:      63
 MODFLOW STRESS PERIOD      2     CURRENT TIME STEP:      63     ITERATIONS:       9

 -----------------------------------------------------------------------------------

   CUMULATIVE VOLUMES               L**3   RATES FOR THIS TIME STEP           L**3/T
   ------------------                      ------------------------

                                     IN                                         IN
                                     --                                         --
        PRECIPITATION =        2076620.74          PRECIPITATION =                  
           STREAMFLOW =                               STREAMFLOW =                  
     GW BOUNDARY FLOW =                         GW BOUNDARY FLOW =                  


                                    OUT                                        OUT
                                    ---                                        ---
   EVAPOTRANSPIRATION =        1484393.01     EVAPOTRANSPIRATION =          37392.37
           STREAMFLOW =         505450.24             STREAMFLOW =          14353.85
     GW BOUNDARY FLOW =          40873.36       GW BOUNDARY FLOW =            649.33

   INFLOWS - OUTFLOWS =          45904.14     INFLOWS - OUTFLOWS =         -52395.55
             --------                                   --------

 TOTAL STORAGE CHANGE =          50548.08         STORAGE CHANGE =         -52358.84
       --------------                             --------------
         LAND SURFACE =         139443.43           LAND SURFACE =         -82002.01
            SOIL ZONE =        1259305.06              SOIL ZONE =          47319.59
     UNSATURATED ZONE =       -1115505.00       UNSATURATED ZONE =         -13017.08
       SATURATED ZONE =        -232695.42         SATURATED ZONE =          -4659.33

 OVERALL BUDGET ERROR =          -4643.94           BUDGET ERROR =            -36.71


  PERCENT DISCREPANCY =             -0.22    PERCENT DISCREPANCY =             -0.07



1
 SUMMARY VOLUMETRIC BUDGET FOR GSFLOW 
 DATE: 12 09 1980              CUMULATIVE TIME STEP:      70
 MODFLOW STRESS PERIOD      2     CURRENT TIME STEP:      70     ITERATIONS:       7

 -----------------------------------------------------------------------------------

   CUMULATIVE VOLUMES               L**3   RATES FOR THIS TIME STEP           L**3/T
   ------------------                      ------------------------

                                     IN                                         IN
                                     --                                         --
        PRECIPITATION =        4284363.13          PRECIPITATION =                  
           STREAMFLOW =                               STREAMFLOW =                  
     GW BOUNDARY FLOW =                         GW BOUNDARY FLOW =                  


                                    OUT                                        OUT
                                    ---                                        ---
   EVAPOTRANSPIRATION =        1510948.50     EVAPOTRANSPIRATION =           4180.71
           STREAMFLOW =         599574.56             STREAMFLOW =          13807.15
     GW BOUNDARY FLOW =          45419.43       GW BOUNDARY FLOW =            649.53

   INFLOWS - OUTFLOWS =        2128420.64     INFLOWS - OUTFLOWS =         -18637.40
             --------                                   --------

 TOTAL STORAGE CHANGE =        2133517.87         STORAGE CHANGE =         -18571.75
       --------------                             --------------
         LAND SURFACE =        2319000.21           LAND SURFACE =          -4180.71
            SOIL ZONE =        1300302.91              SOIL ZONE =           5743.34
     UNSATURATED ZONE =       -1214146.94       UNSATURATED ZONE =         -14240.76
       SATURATED ZONE =        -271638.31         SATURATED ZONE =          -5893.62

 OVERALL BUDGET ERROR =          -5097.23           BUDGET ERROR =            -65.65


  PERCENT DISCREPANCY =             -0.12    PERCENT DISCREPANCY =             -0.35



1
 SUMMARY VOLUMETRIC BUDGET FOR GSFLOW 
 DATE: 12 16 1980              CUMULATIVE TIME STEP:      77
 MODFLOW STRESS PERIOD      2     CURRENT TIME STEP:      77     ITERATIONS:       7

 -----------------------------------------------------------------------------------

   CUMULATIVE VOLUMES               L**3   RATES FOR THIS TIME STEP           L**3/T
   ------------------                      ------------------------

                                     IN                                         IN
                                     --                                         --
        PRECIPITATION =        4284363.13          PRECIPITATION =                  
           STREAMFLOW =                               STREAMFLOW =                  
     GW BOUNDARY FLOW =                         GW BOUNDARY FLOW =                  


                                    OUT                                        OUT
                                    ---                                        ---
   EVAPOTRANSPIRATION =        1662712.71     EVAPOTRANSPIRATION =          35694.90
           STREAMFLOW =         716181.47             STREAMFLOW =          24665.21
     GW BOUNDARY FLOW =          49967.46       GW BOUNDARY FLOW =            650.19

   INFLOWS - OUTFLOWS =        1855501.49     INFLOWS - OUTFLOWS =         -61010.29
             --------                                   --------

 TOTAL STORAGE CHANGE =        1861034.05         STORAGE CHANGE =         -60952.38
       --------------                             --------------
         LAND SURFACE =        1981773.89           LAND SURFACE =        -138704.98
            SOIL ZONE =        1494667.51              SOIL ZONE =          91133.96
     UNSATURATED ZONE =       -1303860.24       UNSATURATED ZONE =          -8991.21
       SATURATED ZONE =        -311547.11         SATURATED ZONE =          -4390.16

 OVERALL BUDGET ERROR =          -5532.56           BUDGET ERROR =            -57.91


  PERCENT DISCREPANCY =             -0.13    PERCENT DISCREPANCY =             -0.09



1
 SUMMARY VOLUMETRIC BUDGET FOR GSFLOW 
 DATE: 12 23 1980              CUMULATIVE TIME STEP:      84
 MODFLOW STRESS PERIOD      2     CURRENT TIME STEP:      84     ITERATIONS:       9

 -----------------------------------------------------------------------------------

   CUMULATIVE VOLUMES               L**3   RATES FOR THIS TIME STEP           L**3/T
   ------------------                      ------------------------

                                     IN                                         IN
                                     --                                         --
        PRECIPITATION =        4516755.31          PRECIPITATION =                  
           STREAMFLOW =                               STREAMFLOW =                  
     GW BOUNDARY FLOW =                         GW BOUNDARY FLOW =                  


                                    OUT                                        OUT
                                    ---                                        ---
   EVAPOTRANSPIRATION =        1882774.67     EVAPOTRANSPIRATION =          37557.68
           STREAMFLOW =         945071.56             STREAMFLOW =          30783.49
     GW BOUNDARY FLOW =          54527.80       GW BOUNDARY FLOW =            651.95

   INFLOWS - OUTFLOWS =        1634381.28     INFLOWS - OUTFLOWS =         -68993.12
             --------                                   --------

 TOTAL STORAGE CHANGE =        1640170.44         STORAGE CHANGE =         -68961.18
       --------------                             --------------
         LAND SURFACE =        1331470.56           LAND SURFACE =         -52543.77
            SOIL ZONE =        1993017.10              SOIL ZONE =          -6091.44
     UNSATURATED ZONE =       -1345195.70       UNSATURATED ZONE =          -5782.19
       SATURATED ZONE =        -339121.52         SATURATED ZONE =          -4543.79

 OVERALL BUDGET ERROR =          -5789.16           BUDGET ERROR =            -31.93


  PERCENT DISCREPANCY =             -0.13    PERCENT DISCREPANCY =             -0.05



1
 SUMMARY VOLUMETRIC BUDGET FOR GSFLOW 
 DATE: 12 30 1980              CUMULATIVE TIME STEP:      91
 MODFLOW STRESS PERIOD      2     CURRENT TIME STEP:      91     ITERATIONS:      11

 -----------------------------------------------------------------------------------

   CUMULATIVE VOLUMES               L**3   RATES FOR THIS TIME STEP           L**3/T
   ------------------                      ------------------------

                                     IN                                         IN
                                     --                                         --
        PRECIPITATION =        4516755.31          PRECIPITATION =                  
           STREAMFLOW =                               STREAMFLOW =                  
     GW BOUNDARY FLOW =                         GW BOUNDARY FLOW =                  


                                    OUT                                        OUT
                                    ---                                        ---
   EVAPOTRANSPIRATION =        2262880.44     EVAPOTRANSPIRATION =          48689.89
           STREAMFLOW =        1189196.61             STREAMFLOW =          26988.04
     GW BOUNDARY FLOW =          59094.47       GW BOUNDARY FLOW =            652.35

   INFLOWS - OUTFLOWS =        1005583.79     INFLOWS - OUTFLOWS =         -76330.27
             --------                                   --------

 TOTAL STORAGE CHANGE =        1011511.08         STORAGE CHANGE =         -76315.41
       --------------                             --------------
         LAND SURFACE =         529446.97           LAND SURFACE =         -41358.17
            SOIL ZONE =        2204206.97              SOIL ZONE =         -25740.31
     UNSATURATED ZONE =       -1357503.01       UNSATURATED ZONE =          -4964.73
       SATURATED ZONE =        -364639.86         SATURATED ZONE =          -4252.20

 OVERALL BUDGET ERROR =          -5927.28           BUDGET ERROR =            -14.86


  PERCENT DISCREPANCY =             -0.13    PERCENT DISCREPANCY =             -0.02



1
 SUMMARY VOLUMETRIC BUDGET FOR GSFLOW 
 DATE: 01 06 1981              CUMULATIVE TIME STEP:      98
 MODFLOW STRESS PERIOD      2     CURRENT TIME STEP:      98     ITERATIONS:       8

 -----------------------------------------------------------------------------------

   CUMULATIVE VOLUMES               L**3   RATES FOR THIS TIME STEP           L**3/T
   ------------------                      ------------------------

                                     IN                                         IN
                                     --                                         --
        PRECIPITATION =        5004445.82          PRECIPITATION =                  
           STREAMFLOW =                               STREAMFLOW =                  
     GW BOUNDARY FLOW =                         GW BOUNDARY FLOW =                  


                                    OUT                                        OUT
                                    ---                                        ---
   EVAPOTRANSPIRATION =        2494373.81     EVAPOTRANSPIRATION =          21291.83
           STREAMFLOW =        1335378.92             STREAMFLOW =          19843.18
     GW BOUNDARY FLOW =          63655.19       GW BOUNDARY FLOW =            651.07

   INFLOWS - OUTFLOWS =        1111037.90     INFLOWS - OUTFLOWS =         -41786.08
             --------                                   --------

 TOTAL STORAGE CHANGE =        1117124.91         STORAGE CHANGE =         -41756.81
       --------------                             --------------
         LAND SURFACE =         783105.33           LAND SURFACE =         -28174.19
            SOIL ZONE =        2172704.44              SOIL ZONE =           4597.76
     UNSATURATED ZONE =       -1434339.30       UNSATURATED ZONE =         -12191.96
       SATURATED ZONE =        -404345.56         SATURATED ZONE =          -5988.42

 OVERALL BUDGET ERROR =          -6087.01           BUDGET ERROR =            -29.28


  PERCENT DISCREPANCY =             -0.12    PERCENT DISCREPANCY =             -0.07



1
 SUMMARY VOLUMETRIC BUDGET FOR GSFLOW 
 DATE: 01 13 1981              CUMULATIVE TIME STEP:     105
 MODFLOW STRESS PERIOD      2     CURRENT TIME STEP:     105     ITERATIONS:       7

 -----------------------------------------------------------------------------------

   CUMULATIVE VOLUMES               L**3   RATES FOR THIS TIME STEP           L**3/T
   ------------------                      ------------------------

                                     IN                                         IN
                                     --                                         --
        PRECIPITATION =        5004445.82          PRECIPITATION =                  
           STREAMFLOW =                               STREAMFLOW =                  
     GW BOUNDARY FLOW =                         GW BOUNDARY FLOW =                  


                                    OUT                                        OUT
                                    ---                                        ---
   EVAPOTRANSPIRATION =        2706205.06     EVAPOTRANSPIRATION =          43755.89
           STREAMFLOW =        1479844.06             STREAMFLOW =          19947.57
     GW BOUNDARY FLOW =          68211.72       GW BOUNDARY FLOW =            650.81

   INFLOWS - OUTFLOWS =         750184.97     INFLOWS - OUTFLOWS =         -64354.27
             --------                                   --------

 TOTAL STORAGE CHANGE =         756599.61         STORAGE CHANGE =         -64301.31
       --------------                             --------------
         LAND SURFACE =         556998.15           LAND SURFACE =         -38369.48
            SOIL ZONE =        2152498.23              SOIL ZONE =          -9867.65
     UNSATURATED ZONE =       -1503954.79       UNSATURATED ZONE =          -9409.32
       SATURATED ZONE =        -448941.98         SATURATED ZONE =          -6654.85

 OVERALL BUDGET ERROR =          -6414.64           BUDGET ERROR =            -52.96


  PERCENT DISCREPANCY =             -0.13    PERCENT DISCREPANCY =             -0.08



1
 SUMMARY VOLUMETRIC BUDGET FOR GSFLOW 
 DATE: 01 20 1981              CUMULATIVE TIME STEP:     112
 MODFLOW STRESS PERIOD      2     CURRENT TIME STEP:     112     ITERATIONS:       8

 -----------------------------------------------------------------------------------

   CUMULATIVE VOLUMES               L**3   RATES FOR THIS TIME STEP           L**3/T
   ------------------                      ------------------------

                                     IN                                         IN
                                     --                                         --
        PRECIPITATION =        5170468.48          PRECIPITATION =          41503.16
           STREAMFLOW =                               STREAMFLOW =                  
     GW BOUNDARY FLOW =                         GW BOUNDARY FLOW =                  


                                    OUT                                        OUT
                                    ---                                        ---
   EVAPOTRANSPIRATION =        3007154.11     EVAPOTRANSPIRATION =          54573.49
           STREAMFLOW =        1616966.75             STREAMFLOW =          19301.72
     GW BOUNDARY FLOW =          72766.17       GW BOUNDARY FLOW =            650.56

   INFLOWS - OUTFLOWS =         473581.44     INFLOWS - OUTFLOWS =         -33022.60
             --------                                   --------

 TOTAL STORAGE CHANGE =         480322.52         STORAGE CHANGE =         -32989.82
       --------------                             --------------
         LAND SURFACE =         392560.19           LAND SURFACE =           1262.98
            SOIL ZONE =        2128118.48              SOIL ZONE =         -23718.78
     UNSATURATED ZONE =       -1545269.46       UNSATURATED ZONE =          -3702.29
       SATURATED ZONE =        -495086.69         SATURATED ZONE =          -6831.74

 OVERALL BUDGET ERROR =          -6741.08           BUDGET ERROR =            -32.77


  PERCENT DISCREPANCY =             -0.13    PERCENT DISCREPANCY =             -0.04



1
 SUMMARY VOLUMETRIC BUDGET FOR GSFLOW 
 DATE: 01 27 1981              CUMULATIVE TIME STEP:     119
 MODFLOW STRESS PERIOD      2     CURRENT TIME STEP:     119     ITERATIONS:       8

 -----------------------------------------------------------------------------------

   CUMULATIVE VOLUMES               L**3   RATES FOR THIS TIME STEP           L**3/T
   ------------------                      ------------------------

                                     IN                                         IN
                                     --                                         --
        PRECIPITATION =        8646542.90          PRECIPITATION =        2936504.96
           STREAMFLOW =                               STREAMFLOW =                  
     GW BOUNDARY FLOW =                         GW BOUNDARY FLOW =                  


                                    OUT                                        OUT
                                    ---                                        ---
   EVAPOTRANSPIRATION =        3238944.67     EVAPOTRANSPIRATION =          12593.32
           STREAMFLOW =        1750650.92             STREAMFLOW =          17716.68
     GW BOUNDARY FLOW =          77319.36       GW BOUNDARY FLOW =            650.31

   INFLOWS - OUTFLOWS =        3579627.95     INFLOWS - OUTFLOWS =        2905544.66
             --------                                   --------

 TOTAL STORAGE CHANGE =        3586587.20         STORAGE CHANGE =        2905576.96
       --------------                             --------------
         LAND SURFACE =        3531533.77           LAND SURFACE =        2923911.72
            SOIL ZONE =        2161557.99              SOIL ZONE =          -3846.26
     UNSATURATED ZONE =       -1562270.05       UNSATURATED ZONE =          -7134.67
       SATURATED ZONE =        -544234.52         SATURATED ZONE =          -7353.82

 OVERALL BUDGET ERROR =          -6959.25           BUDGET ERROR =            -32.31


  PERCENT DISCREPANCY =             -0.08    PERCENT DISCREPANCY =             -0.00



1
 SUMMARY VOLUMETRIC BUDGET FOR GSFLOW 
 DATE: 02 03 1981              CUMULATIVE TIME STEP:     126
 MODFLOW STRESS PERIOD      2     CURRENT TIME STEP:     126     ITERATIONS:       8

 -----------------------------------------------------------------------------------

   CUMULATIVE VOLUMES               L**3   RATES FOR THIS TIME STEP           L**3/T
   ------------------                      ------------------------

                                     IN                                         IN
                                     --                                         --
        PRECIPITATION =        1.1739D+07          PRECIPITATION =                  
           STREAMFLOW =                               STREAMFLOW =                  
     GW BOUNDARY FLOW =                         GW BOUNDARY FLOW =                  


                                    OUT                                        OUT
                                    ---                                        ---
   EVAPOTRANSPIRATION =        3276293.16     EVAPOTRANSPIRATION =           8130.85
           STREAMFLOW =        1873743.66             STREAMFLOW =          17660.80
     GW BOUNDARY FLOW =          81870.88       GW BOUNDARY FLOW =            650.20

   INFLOWS - OUTFLOWS =        6506790.08     INFLOWS - OUTFLOWS =         -26441.86
             --------                                   --------

 TOTAL STORAGE CHANGE =        6514034.46         STORAGE CHANGE =         -26409.71
       --------------                             --------------
         LAND SURFACE =        6586340.18           LAND SURFACE =          -8130.85
            SOIL ZONE =        2160292.92              SOIL ZONE =            869.90
     UNSATURATED ZONE =       -1633963.75       UNSATURATED ZONE =         -11176.12
       SATURATED ZONE =        -598634.89         SATURATED ZONE =          -7972.64

 OVERALL BUDGET ERROR =          -7244.38           BUDGET ERROR =            -32.15


  PERCENT DISCREPANCY =             -0.06    PERCENT DISCREPANCY =             -0.12



1
 SUMMARY VOLUMETRIC BUDGET FOR GSFLOW 
 DATE: 02 10 1981              CUMULATIVE TIME STEP:     133
 MODFLOW STRESS PERIOD      2     CURRENT TIME STEP:     133     ITERATIONS:       7

 -----------------------------------------------------------------------------------

   CUMULATIVE VOLUMES               L**3   RATES FOR THIS TIME STEP           L**3/T
   ------------------                      ------------------------

                                     IN                                         IN
                                     --                                         --
        PRECIPITATION =        1.1838D+07          PRECIPITATION =                  
           STREAMFLOW =                               STREAMFLOW =                  
     GW BOUNDARY FLOW =                         GW BOUNDARY FLOW =                  


                                    OUT                                        OUT
                                    ---                                        ---
   EVAPOTRANSPIRATION =        3410095.51     EVAPOTRANSPIRATION =          34657.17
           STREAMFLOW =        1998269.37             STREAMFLOW =          17864.00
     GW BOUNDARY FLOW =          86422.37       GW BOUNDARY FLOW =            650.21

   INFLOWS - OUTFLOWS =        6343475.99     INFLOWS - OUTFLOWS =         -53171.39
             --------                                   --------

 TOTAL STORAGE CHANGE =        6351013.74         STORAGE CHANGE =         -53107.63
       --------------                             --------------
         LAND SURFACE =        6552103.29           LAND SURFACE =         -34657.17
            SOIL ZONE =        2165662.55              SOIL ZONE =            655.00
     UNSATURATED ZONE =       -1710206.77       UNSATURATED ZONE =         -10640.64
       SATURATED ZONE =        -656545.34         SATURATED ZONE =          -8464.81

 OVERALL BUDGET ERROR =          -7537.74           BUDGET ERROR =            -63.76


  PERCENT DISCREPANCY =             -0.06    PERCENT DISCREPANCY =             -0.12



1
 SUMMARY VOLUMETRIC BUDGET FOR GSFLOW 
 DATE: 02 17 1981              CUMULATIVE TIME STEP:     140
 MODFLOW STRESS PERIOD      2     CURRENT TIME STEP:     140     ITERATIONS:      14

 -----------------------------------------------------------------------------------

   CUMULATIVE VOLUMES               L**3   RATES FOR THIS TIME STEP           L**3/T
   ------------------                      ------------------------

                                     IN                                         IN
                                     --                                         --
        PRECIPITATION =        1.2765D+07          PRECIPITATION =          68928.68
           STREAMFLOW =                               STREAMFLOW =                  
     GW BOUNDARY FLOW =                         GW BOUNDARY FLOW =                  


                                    OUT                                        OUT
                                    ---                                        ---
   EVAPOTRANSPIRATION =        3758253.19     EVAPOTRANSPIRATION =          71030.99
           STREAMFLOW =        2509961.35             STREAMFLOW =         121586.45
     GW BOUNDARY FLOW =          90994.67       GW BOUNDARY FLOW =            656.59

   INFLOWS - OUTFLOWS =        6405771.46     INFLOWS - OUTFLOWS =        -124345.35
             --------                                   --------

 TOTAL STORAGE CHANGE =        6413545.90         STORAGE CHANGE =        -124339.11
       --------------                             --------------
         LAND SURFACE =        5604894.48           LAND SURFACE =        -287595.36
            SOIL ZONE =        2973146.24              SOIL ZONE =          85504.42
     UNSATURATED ZONE =       -1487829.62       UNSATURATED ZONE =          75830.50
       SATURATED ZONE =        -676665.20         SATURATED ZONE =           1921.34

 OVERALL BUDGET ERROR =          -7774.44           BUDGET ERROR =             -6.25


  PERCENT DISCREPANCY =             -0.06    PERCENT DISCREPANCY =             -0.00



1
 SUMMARY VOLUMETRIC BUDGET FOR GSFLOW 
 DATE: 02 24 1981              CUMULATIVE TIME STEP:     147
 MODFLOW STRESS PERIOD      2     CURRENT TIME STEP:     147     ITERATIONS:      14

 -----------------------------------------------------------------------------------

   CUMULATIVE VOLUMES               L**3   RATES FOR THIS TIME STEP           L**3/T
   ------------------                      ------------------------

                                     IN                                         IN
                                     --                                         --
        PRECIPITATION =        1.3179D+07          PRECIPITATION =         344647.71
           STREAMFLOW =                               STREAMFLOW =                  
     GW BOUNDARY FLOW =                         GW BOUNDARY FLOW =                  


                                    OUT                                        OUT
                                    ---                                        ---
   EVAPOTRANSPIRATION =        4134369.98     EVAPOTRANSPIRATION =          19832.91
           STREAMFLOW =        3079519.14             STREAMFLOW =          50857.61
     GW BOUNDARY FLOW =          95588.74       GW BOUNDARY FLOW =            655.28

   INFLOWS - OUTFLOWS =        5869080.59     INFLOWS - OUTFLOWS =         273301.91
             --------                                   --------

 TOTAL STORAGE CHANGE =        5876756.77         STORAGE CHANGE =         273284.29
       --------------                             --------------
         LAND SURFACE =        4925109.93           LAND SURFACE =         300251.60
            SOIL ZONE =        2724608.01              SOIL ZONE =         -57831.19
     UNSATURATED ZONE =       -1118044.71       UNSATURATED ZONE =          28698.67
       SATURATED ZONE =        -654916.46         SATURATED ZONE =           2165.21

 OVERALL BUDGET ERROR =          -7676.18           BUDGET ERROR =             17.62


  PERCENT DISCREPANCY =             -0.06    PERCENT DISCREPANCY =              0.01



1
 SUMMARY VOLUMETRIC BUDGET FOR GSFLOW 
 DATE: 03 03 1981              CUMULATIVE TIME STEP:     154
 MODFLOW STRESS PERIOD      2     CURRENT TIME STEP:     154     ITERATIONS:      12

 -----------------------------------------------------------------------------------

   CUMULATIVE VOLUMES               L**3   RATES FOR THIS TIME STEP           L**3/T
   ------------------                      ------------------------

                                     IN                                         IN
                                     --                                         --
        PRECIPITATION =        1.3447D+07          PRECIPITATION =                  
           STREAMFLOW =                               STREAMFLOW =                  
     GW BOUNDARY FLOW =                         GW BOUNDARY FLOW =                  


                                    OUT                                        OUT
                                    ---                                        ---
   EVAPOTRANSPIRATION =        4297041.93     EVAPOTRANSPIRATION =          44568.32
           STREAMFLOW =        3301726.07             STREAMFLOW =          27132.07
     GW BOUNDARY FLOW =         100161.73       GW BOUNDARY FLOW =            652.27

   INFLOWS - OUTFLOWS =        5747689.06     INFLOWS - OUTFLOWS =         -72352.66
             --------                                   --------

 TOTAL STORAGE CHANGE =        5755204.88         STORAGE CHANGE =         -72369.34
       --------------                             --------------
         LAND SURFACE =        5011972.63           LAND SURFACE =         -61722.17
            SOIL ZONE =        2512977.10              SOIL ZONE =            464.90
     UNSATURATED ZONE =       -1108620.77       UNSATURATED ZONE =          -8512.51
       SATURATED ZONE =        -661124.07         SATURATED ZONE =          -2599.56

 OVERALL BUDGET ERROR =          -7515.82           BUDGET ERROR =             16.68


  PERCENT DISCREPANCY =             -0.06    PERCENT DISCREPANCY =              0.02



1
 SUMMARY VOLUMETRIC BUDGET FOR GSFLOW 
 DATE: 03 10 1981              CUMULATIVE TIME STEP:     161
 MODFLOW STRESS PERIOD      2     CURRENT TIME STEP:     161     ITERATIONS:      11

 -----------------------------------------------------------------------------------

   CUMULATIVE VOLUMES               L**3   RATES FOR THIS TIME STEP           L**3/T
   ------------------                      ------------------------

                                     IN                                         IN
                                     --                                         --
        PRECIPITATION =        1.3493D+07          PRECIPITATION =                  
           STREAMFLOW =                               STREAMFLOW =                  
     GW BOUNDARY FLOW =                         GW BOUNDARY FLOW =                  


                                    OUT                                        OUT
                                    ---                                        ---
   EVAPOTRANSPIRATION =        4638216.89     EVAPOTRANSPIRATION =          71562.45
           STREAMFLOW =        3529834.90             STREAMFLOW =          41837.43
     GW BOUNDARY FLOW =         104727.40       GW BOUNDARY FLOW =            652.83

   INFLOWS - OUTFLOWS =        5220175.33     INFLOWS - OUTFLOWS =        -114052.70
             --------                                   --------

 TOTAL STORAGE CHANGE =        5227578.69         STORAGE CHANGE =        -114070.49
       --------------                             --------------
         LAND SURFACE =        4369723.85           LAND SURFACE =        -162552.80
            SOIL ZONE =        2618304.13              SOIL ZONE =          28501.00
     UNSATURATED ZONE =       -1082764.88       UNSATURATED ZONE =          21060.97
       SATURATED ZONE =        -677684.40         SATURATED ZONE =          -1079.66

 OVERALL BUDGET ERROR =          -7403.36           BUDGET ERROR =             17.79


  PERCENT DISCREPANCY =             -0.05    PERCENT DISCREPANCY =              0.02



1
 SUMMARY VOLUMETRIC BUDGET FOR GSFLOW 
 DATE: 03 17 1981              CUMULATIVE TIME STEP:     168
 MODFLOW STRESS PERIOD      2     CURRENT TIME STEP:     168     ITERATIONS:       9

 -----------------------------------------------------------------------------------

   CUMULATIVE VOLUMES               L**3   RATES FOR THIS TIME STEP           L**3/T
   ------------------                      ------------------------

                                     IN                                         IN
                                     --                                         --
        PRECIPITATION =        1.3745D+07          PRECIPITATION =                  
           STREAMFLOW =                               STREAMFLOW =                  
     GW BOUNDARY FLOW =                         GW BOUNDARY FLOW =                  


                                    OUT                                        OUT
                                    ---                                        ---
   EVAPOTRANSPIRATION =        4997673.15     EVAPOTRANSPIRATION =          39557.19
           STREAMFLOW =        3752794.53             STREAMFLOW =          23755.27
     GW BOUNDARY FLOW =         109294.52       GW BOUNDARY FLOW =            651.88

   INFLOWS - OUTFLOWS =        4884740.63     INFLOWS - OUTFLOWS =         -63964.35
             --------                                   --------

 TOTAL STORAGE CHANGE =        4892040.33         STORAGE CHANGE =         -63968.08
       --------------                             --------------
         LAND SURFACE =        4198119.48           LAND SURFACE =         -39206.25
            SOIL ZONE =        2457057.82              SOIL ZONE =          -4526.48
     UNSATURATED ZONE =       -1066240.66       UNSATURATED ZONE =         -15442.68
       SATURATED ZONE =        -696896.32         SATURATED ZONE =          -4792.67

 OVERALL BUDGET ERROR =          -7299.70           BUDGET ERROR =              3.73


  PERCENT DISCREPANCY =             -0.05    PERCENT DISCREPANCY =              0.01



1
 SUMMARY VOLUMETRIC BUDGET FOR GSFLOW 
 DATE: 03 24 1981              CUMULATIVE TIME STEP:     175
 MODFLOW STRESS PERIOD      2     CURRENT TIME STEP:     175     ITERATIONS:       8

 -----------------------------------------------------------------------------------

   CUMULATIVE VOLUMES               L**3   RATES FOR THIS TIME STEP           L**3/T
   ------------------                      ------------------------

                                     IN                                         IN
                                     --                                         --
        PRECIPITATION =        1.4367D+07          PRECIPITATION =                  
           STREAMFLOW =                               STREAMFLOW =                  
     GW BOUNDARY FLOW =                         GW BOUNDARY FLOW =                  


                                    OUT                                        OUT
                                    ---                                        ---
   EVAPOTRANSPIRATION =        5350745.59     EVAPOTRANSPIRATION =          85696.82
           STREAMFLOW =        3918430.77             STREAMFLOW =          25225.69
     GW BOUNDARY FLOW =         113854.45       GW BOUNDARY FLOW =            651.31

   INFLOWS - OUTFLOWS =        4983725.44     INFLOWS - OUTFLOWS =        -111573.81
             --------                                   --------

 TOTAL STORAGE CHANGE =        4991033.05         STORAGE CHANGE =        -111564.45
       --------------                             --------------
         LAND SURFACE =        4528959.93           LAND SURFACE =         -63588.50
            SOIL ZONE =        2343337.06              SOIL ZONE =         -36120.05
     UNSATURATED ZONE =       -1146111.59       UNSATURATED ZONE =          -6146.94
       SATURATED ZONE =        -735152.36         SATURATED ZONE =          -5708.96

 OVERALL BUDGET ERROR =          -7307.61           BUDGET ERROR =             -9.36


  PERCENT DISCREPANCY =             -0.05    PERCENT DISCREPANCY =             -0.01



1
 SUMMARY VOLUMETRIC BUDGET FOR GSFLOW 
 DATE: 03 31 1981              CUMULATIVE TIME STEP:     182
 MODFLOW STRESS PERIOD      2     CURRENT TIME STEP:     182     ITERATIONS:      12

 -----------------------------------------------------------------------------------

   CUMULATIVE VOLUMES               L**3   RATES FOR THIS TIME STEP           L**3/T
   ------------------                      ------------------------

                                     IN                                         IN
                                     --                                         --
        PRECIPITATION =        1.5777D+07          PRECIPITATION =                  
           STREAMFLOW =                               STREAMFLOW =                  
     GW BOUNDARY FLOW =                         GW BOUNDARY FLOW =                  


                                    OUT                                        OUT
                                    ---                                        ---
   EVAPOTRANSPIRATION =        5776254.94     EVAPOTRANSPIRATION =          55421.24
           STREAMFLOW =        4367315.26             STREAMFLOW =          33538.57
     GW BOUNDARY FLOW =         118433.07       GW BOUNDARY FLOW =            653.16

   INFLOWS - OUTFLOWS =        5514762.92     INFLOWS - OUTFLOWS =         -89612.97
             --------                                   --------

 TOTAL STORAGE CHANGE =        5521970.92         STORAGE CHANGE =         -89634.39
       --------------                             --------------
         LAND SURFACE =        4697103.43           LAND SURFACE =         -55743.36
            SOIL ZONE =        2522226.81              SOIL ZONE =         -31957.75
     UNSATURATED ZONE =        -957926.34       UNSATURATED ZONE =            355.77
       SATURATED ZONE =        -739432.99         SATURATED ZONE =          -2289.05

 OVERALL BUDGET ERROR =          -7207.99           BUDGET ERROR =             21.41


  PERCENT DISCREPANCY =             -0.05    PERCENT DISCREPANCY =              0.02



1
 SUMMARY VOLUMETRIC BUDGET FOR GSFLOW 
 DATE: 04 07 1981              CUMULATIVE TIME STEP:     189
 MODFLOW STRESS PERIOD      2     CURRENT TIME STEP:     189     ITERATIONS:      10

 -----------------------------------------------------------------------------------

   CUMULATIVE VOLUMES               L**3   RATES FOR THIS TIME STEP           L**3/T
   ------------------                      ------------------------

                                     IN                                         IN
                                     --                                         --
        PRECIPITATION =        1.6121D+07          PRECIPITATION =                  
           STREAMFLOW =                               STREAMFLOW =                  
     GW BOUNDARY FLOW =                         GW BOUNDARY FLOW =                  


                                    OUT                                        OUT
                                    ---                                        ---
   EVAPOTRANSPIRATION =        6421859.53     EVAPOTRANSPIRATION =         106275.95
           STREAMFLOW =        4663509.66             STREAMFLOW =          42213.51
     GW BOUNDARY FLOW =         123006.25       GW BOUNDARY FLOW =            653.58

   INFLOWS - OUTFLOWS =        4913107.71     INFLOWS - OUTFLOWS =        -149143.04
             --------                                   --------

 TOTAL STORAGE CHANGE =        4920183.16         STORAGE CHANGE =        -149165.66
       --------------                             --------------
         LAND SURFACE =        4078016.32           LAND SURFACE =        -145758.59
            SOIL ZONE =        2481532.13              SOIL ZONE =         -13403.62
     UNSATURATED ZONE =        -891425.31       UNSATURATED ZONE =          10664.49
       SATURATED ZONE =        -747939.98         SATURATED ZONE =           -667.94

 OVERALL BUDGET ERROR =          -7075.45           BUDGET ERROR =             22.62


  PERCENT DISCREPANCY =             -0.04    PERCENT DISCREPANCY =              0.02



1
 SUMMARY VOLUMETRIC BUDGET FOR GSFLOW 
 DATE: 04 14 1981              CUMULATIVE TIME STEP:     196
 MODFLOW STRESS PERIOD      2     CURRENT TIME STEP:     196     ITERATIONS:      12

 -----------------------------------------------------------------------------------

   CUMULATIVE VOLUMES               L**3   RATES FOR THIS TIME STEP           L**3/T
   ------------------                      ------------------------

                                     IN                                         IN
                                     --                                         --
        PRECIPITATION =        1.6121D+07          PRECIPITATION =                  
           STREAMFLOW =                               STREAMFLOW =                  
     GW BOUNDARY FLOW =                         GW BOUNDARY FLOW =                  


                                    OUT                                        OUT
                                    ---                                        ---
   EVAPOTRANSPIRATION =        7348890.57     EVAPOTRANSPIRATION =         190847.08
           STREAMFLOW =        4988129.30             STREAMFLOW =          55261.60
     GW BOUNDARY FLOW =         127580.84       GW BOUNDARY FLOW =            653.52

   INFLOWS - OUTFLOWS =        3656882.44     INFLOWS - OUTFLOWS =        -246762.20
             --------                                   --------

 TOTAL STORAGE CHANGE =        3663784.50         STORAGE CHANGE =        -246780.87
       --------------                             --------------
         LAND SURFACE =        2766600.67           LAND SURFACE =        -261667.29
            SOIL ZONE =        2439707.70              SOIL ZONE =          -6922.51
     UNSATURATED ZONE =        -793262.59       UNSATURATED ZONE =          20646.16
       SATURATED ZONE =        -749261.29         SATURATED ZONE =           1162.77

 OVERALL BUDGET ERROR =          -6902.06           BUDGET ERROR =             18.67


  PERCENT DISCREPANCY =             -0.04    PERCENT DISCREPANCY =              0.01



1
 SUMMARY VOLUMETRIC BUDGET FOR GSFLOW 
 DATE: 04 21 1981              CUMULATIVE TIME STEP:     203
 MODFLOW STRESS PERIOD      2     CURRENT TIME STEP:     203     ITERATIONS:      13

 -----------------------------------------------------------------------------------

   CUMULATIVE VOLUMES               L**3   RATES FOR THIS TIME STEP           L**3/T
   ------------------                      ------------------------

                                     IN                                         IN
                                     --                                         --
        PRECIPITATION =        1.6310D+07          PRECIPITATION =                  
           STREAMFLOW =                               STREAMFLOW =                  
     GW BOUNDARY FLOW =                         GW BOUNDARY FLOW =                  


                                    OUT                                        OUT
                                    ---                                        ---
   EVAPOTRANSPIRATION =        8441340.14     EVAPOTRANSPIRATION =         161783.78
           STREAMFLOW =        5329564.80             STREAMFLOW =          46164.64
     GW BOUNDARY FLOW =         132151.60       GW BOUNDARY FLOW =            652.57

   INFLOWS - OUTFLOWS =        2407200.87     INFLOWS - OUTFLOWS =        -208601.00
             --------                                   --------

 TOTAL STORAGE CHANGE =        2413951.95         STORAGE CHANGE =        -208626.43
       --------------                             --------------
         LAND SURFACE =        1526141.72           LAND SURFACE =        -128414.83
            SOIL ZONE =        2289184.52              SOIL ZONE =        -100958.48
     UNSATURATED ZONE =        -662449.41       UNSATURATED ZONE =          18759.95
       SATURATED ZONE =        -738924.89         SATURATED ZONE =           1986.93

 OVERALL BUDGET ERROR =          -6751.08           BUDGET ERROR =             25.43


  PERCENT DISCREPANCY =             -0.04    PERCENT DISCREPANCY =              0.01



1
 SUMMARY VOLUMETRIC BUDGET FOR GSFLOW 
 DATE: 04 28 1981              CUMULATIVE TIME STEP:     210
 MODFLOW STRESS PERIOD      2     CURRENT TIME STEP:     210     ITERATIONS:      13

 -----------------------------------------------------------------------------------

   CUMULATIVE VOLUMES               L**3   RATES FOR THIS TIME STEP           L**3/T
   ------------------                      ------------------------

                                     IN                                         IN
                                     --                                         --
        PRECIPITATION =        1.6515D+07          PRECIPITATION =                  
           STREAMFLOW =                               STREAMFLOW =                  
     GW BOUNDARY FLOW =                         GW BOUNDARY FLOW =                  


                                    OUT                                        OUT
                                    ---                                        ---
   EVAPOTRANSPIRATION =        9723711.56     EVAPOTRANSPIRATION =         204154.25
           STREAMFLOW =        5538881.20             STREAMFLOW =          23080.43
     GW BOUNDARY FLOW =         136710.58       GW BOUNDARY FLOW =            650.34

   INFLOWS - OUTFLOWS =        1116143.61     INFLOWS - OUTFLOWS =        -227885.02
             --------                                   --------

 TOTAL STORAGE CHANGE =        1122725.70         STORAGE CHANGE =        -227907.94
       --------------                             --------------
         LAND SURFACE =         765041.90           LAND SURFACE =         -86581.37
            SOIL ZONE =        1746787.15              SOIL ZONE =        -136554.65
     UNSATURATED ZONE =        -647619.44       UNSATURATED ZONE =          -3559.29
       SATURATED ZONE =        -741483.91         SATURATED ZONE =          -1212.63

 OVERALL BUDGET ERROR =          -6582.09           BUDGET ERROR =             22.92


  PERCENT DISCREPANCY =             -0.04    PERCENT DISCREPANCY =              0.01



1
 SUMMARY VOLUMETRIC BUDGET FOR GSFLOW 
 DATE: 05 05 1981              CUMULATIVE TIME STEP:     217
 MODFLOW STRESS PERIOD      2     CURRENT TIME STEP:     217     ITERATIONS:      14

 -----------------------------------------------------------------------------------

   CUMULATIVE VOLUMES               L**3   RATES FOR THIS TIME STEP           L**3/T
   ------------------                      ------------------------

                                     IN                                         IN
                                     --                                         --
        PRECIPITATION =        1.6515D+07          PRECIPITATION =                  
           STREAMFLOW =                               STREAMFLOW =                  
     GW BOUNDARY FLOW =                         GW BOUNDARY FLOW =                  


                                    OUT                                        OUT
                                    ---                                        ---
   EVAPOTRANSPIRATION =        1.0632D+07     EVAPOTRANSPIRATION =          58032.33
           STREAMFLOW =        5637560.74             STREAMFLOW =          10213.04
     GW BOUNDARY FLOW =         141255.90       GW BOUNDARY FLOW =            648.66

   INFLOWS - OUTFLOWS =         104554.16     INFLOWS - OUTFLOWS =         -68894.03
             --------                                   --------

 TOTAL STORAGE CHANGE =         111044.55         STORAGE CHANGE =         -68905.84
       --------------                             --------------
         LAND SURFACE =         399244.39           LAND SURFACE =         -19315.26
            SOIL ZONE =        1209867.61              SOIL ZONE =         -30712.03
     UNSATURATED ZONE =        -735531.07       UNSATURATED ZONE =         -15575.88
       SATURATED ZONE =        -762536.37         SATURATED ZONE =          -3302.68

 OVERALL BUDGET ERROR =          -6490.40           BUDGET ERROR =             11.81


  PERCENT DISCREPANCY =             -0.04    PERCENT DISCREPANCY =              0.02



1
 SUMMARY VOLUMETRIC BUDGET FOR GSFLOW 
 DATE: 05 12 1981              CUMULATIVE TIME STEP:     224
 MODFLOW STRESS PERIOD      2     CURRENT TIME STEP:     224     ITERATIONS:      11

 -----------------------------------------------------------------------------------

   CUMULATIVE VOLUMES               L**3   RATES FOR THIS TIME STEP           L**3/T
   ------------------                      ------------------------

                                     IN                                         IN
                                     --                                         --
        PRECIPITATION =        1.6515D+07          PRECIPITATION =                  
           STREAMFLOW =                               STREAMFLOW =                  
     GW BOUNDARY FLOW =                         GW BOUNDARY FLOW =                  


                                    OUT                                        OUT
                                    ---                                        ---
   EVAPOTRANSPIRATION =        1.1165D+07     EVAPOTRANSPIRATION =          94988.52
           STREAMFLOW =        5705521.26             STREAMFLOW =          10208.95
     GW BOUNDARY FLOW =         145793.86       GW BOUNDARY FLOW =            648.14

   INFLOWS - OUTFLOWS =        -501084.23     INFLOWS - OUTFLOWS =        -105845.62
             --------                                   --------

 TOTAL STORAGE CHANGE =        -494682.57         STORAGE CHANGE =        -105857.49
       --------------                             --------------
         LAND SURFACE =         236028.85           LAND SURFACE =         -28466.58
            SOIL ZONE =         900293.15              SOIL ZONE =         -59123.76
     UNSATURATED ZONE =        -835807.94       UNSATURATED ZONE =         -12703.61
       SATURATED ZONE =        -795196.63         SATURATED ZONE =          -5563.54

 OVERALL BUDGET ERROR =          -6401.65           BUDGET ERROR =             11.87


  PERCENT DISCREPANCY =             -0.04    PERCENT DISCREPANCY =              0.01



1
 SUMMARY VOLUMETRIC BUDGET FOR GSFLOW 
 DATE: 05 19 1981              CUMULATIVE TIME STEP:     231
 MODFLOW STRESS PERIOD      2     CURRENT TIME STEP:     231     ITERATIONS:      14

 -----------------------------------------------------------------------------------

   CUMULATIVE VOLUMES               L**3   RATES FOR THIS TIME STEP           L**3/T
   ------------------                      ------------------------

                                     IN                                         IN
                                     --                                         --
        PRECIPITATION =        1.7837D+07          PRECIPITATION =         169047.83
           STREAMFLOW =                               STREAMFLOW =                  
     GW BOUNDARY FLOW =                         GW BOUNDARY FLOW =                  


                                    OUT                                        OUT
                                    ---                                        ---
   EVAPOTRANSPIRATION =        1.1589D+07     EVAPOTRANSPIRATION =          34209.10
           STREAMFLOW =        5824324.13             STREAMFLOW =          21658.83
     GW BOUNDARY FLOW =         150332.57       GW BOUNDARY FLOW =            649.23

   INFLOWS - OUTFLOWS =         273494.89     INFLOWS - OUTFLOWS =         112530.67
             --------                                   --------

 TOTAL STORAGE CHANGE =         279836.86         STORAGE CHANGE =         112524.66
       --------------                             --------------
         LAND SURFACE =         199378.22           LAND SURFACE =          20104.58
            SOIL ZONE =        1816035.64              SOIL ZONE =          99978.61
     UNSATURATED ZONE =        -896593.29       UNSATURATED ZONE =           -632.66
       SATURATED ZONE =        -838983.72         SATURATED ZONE =          -6925.86

 OVERALL BUDGET ERROR =          -6341.97           BUDGET ERROR =              6.01


  PERCENT DISCREPANCY =             -0.04    PERCENT DISCREPANCY =              0.00



1
 SUMMARY VOLUMETRIC BUDGET FOR GSFLOW 
 DATE: 05 26 1981              CUMULATIVE TIME STEP:     238
 MODFLOW STRESS PERIOD      2     CURRENT TIME STEP:     238     ITERATIONS:      14

 -----------------------------------------------------------------------------------

   CUMULATIVE VOLUMES               L**3   RATES FOR THIS TIME STEP           L**3/T
   ------------------                      ------------------------

                                     IN                                         IN
                                     --                                         --
        PRECIPITATION =        1.8252D+07          PRECIPITATION =         284301.98
           STREAMFLOW =                               STREAMFLOW =                  
     GW BOUNDARY FLOW =                         GW BOUNDARY FLOW =                  


                                    OUT                                        OUT
                                    ---                                        ---
   EVAPOTRANSPIRATION =        1.2492D+07     EVAPOTRANSPIRATION =         145733.70
           STREAMFLOW =        5922787.98             STREAMFLOW =          17670.92
     GW BOUNDARY FLOW =         154872.06       GW BOUNDARY FLOW =            648.31

   INFLOWS - OUTFLOWS =        -317772.39     INFLOWS - OUTFLOWS =         120249.04
             --------                                   --------

 TOTAL STORAGE CHANGE =        -311475.48         STORAGE CHANGE =         120243.01
       --------------                             --------------
         LAND SURFACE =         121447.14           LAND SURFACE =          -8077.84
            SOIL ZONE =        1413785.24              SOIL ZONE =         145835.31
     UNSATURATED ZONE =        -954227.91       UNSATURATED ZONE =         -10102.13
       SATURATED ZONE =        -892479.95         SATURATED ZONE =          -7412.32

 OVERALL BUDGET ERROR =          -6296.91           BUDGET ERROR =              6.03


  PERCENT DISCREPANCY =             -0.03    PERCENT DISCREPANCY =              0.00



1
 SUMMARY VOLUMETRIC BUDGET FOR GSFLOW 
 DATE: 06 02 1981              CUMULATIVE TIME STEP:     245
 MODFLOW STRESS PERIOD      2     CURRENT TIME STEP:     245     ITERATIONS:      12

 -----------------------------------------------------------------------------------

   CUMULATIVE VOLUMES               L**3   RATES FOR THIS TIME STEP           L**3/T
   ------------------                      ------------------------

                                     IN                                         IN
                                     --                                         --
        PRECIPITATION =        1.8318D+07          PRECIPITATION =          50867.39
           STREAMFLOW =                               STREAMFLOW =                  
     GW BOUNDARY FLOW =                         GW BOUNDARY FLOW =                  


                                    OUT                                        OUT
                                    ---                                        ---
   EVAPOTRANSPIRATION =        1.3291D+07     EVAPOTRANSPIRATION =          74534.56
           STREAMFLOW =        5988577.30             STREAMFLOW =           7557.03
     GW BOUNDARY FLOW =         159406.36       GW BOUNDARY FLOW =            647.37

   INFLOWS - OUTFLOWS =       -1121013.53     INFLOWS - OUTFLOWS =         -31871.57
             --------                                   --------

 TOTAL STORAGE CHANGE =       -1114740.40         STORAGE CHANGE =         -31878.46
       --------------                             --------------
         LAND SURFACE =          76065.81           LAND SURFACE =          28539.47
            SOIL ZONE =         797241.30              SOIL ZONE =         -39099.27
     UNSATURATED ZONE =       -1034808.09       UNSATURATED ZONE =         -12271.64
       SATURATED ZONE =        -953239.41         SATURATED ZONE =          -9047.02

 OVERALL BUDGET ERROR =          -6273.13           BUDGET ERROR =              6.89


  PERCENT DISCREPANCY =             -0.03    PERCENT DISCREPANCY =              0.01



1
 SUMMARY VOLUMETRIC BUDGET FOR GSFLOW 
 DATE: 06 09 1981              CUMULATIVE TIME STEP:     252
 MODFLOW STRESS PERIOD      2     CURRENT TIME STEP:     252     ITERATIONS:      15

 -----------------------------------------------------------------------------------

   CUMULATIVE VOLUMES               L**3   RATES FOR THIS TIME STEP           L**3/T
   ------------------                      ------------------------

                                     IN                                         IN
                                     --                                         --
        PRECIPITATION =        1.8318D+07          PRECIPITATION =                  
           STREAMFLOW =                               STREAMFLOW =                  
     GW BOUNDARY FLOW =                         GW BOUNDARY FLOW =                  


                                    OUT                                        OUT
                                    ---                                        ---
   EVAPOTRANSPIRATION =        1.3767D+07     EVAPOTRANSPIRATION =          51391.12
           STREAMFLOW =        6035189.08             STREAMFLOW =           6275.32
     GW BOUNDARY FLOW =         163935.93       GW BOUNDARY FLOW =            646.92

   INFLOWS - OUTFLOWS =       -1647509.08     INFLOWS - OUTFLOWS =         -58313.35
             --------                                   --------

 TOTAL STORAGE CHANGE =       -1641214.14         STORAGE CHANGE =         -58312.62
       --------------                             --------------
         LAND SURFACE =          13609.96           LAND SURFACE =          -3000.14
            SOIL ZONE =         486177.17              SOIL ZONE =         -33349.26
     UNSATURATED ZONE =       -1120454.61       UNSATURATED ZONE =         -12064.19
       SATURATED ZONE =       -1020546.66         SATURATED ZONE =          -9899.03

 OVERALL BUDGET ERROR =          -6294.95           BUDGET ERROR =             -0.73


  PERCENT DISCREPANCY =             -0.03    PERCENT DISCREPANCY =             -0.00



1
 SUMMARY VOLUMETRIC BUDGET FOR GSFLOW 
 DATE: 06 16 1981              CUMULATIVE TIME STEP:     259
 MODFLOW STRESS PERIOD      2     CURRENT TIME STEP:     259     ITERATIONS:      13

 -----------------------------------------------------------------------------------

   CUMULATIVE VOLUMES               L**3   RATES FOR THIS TIME STEP           L**3/T
   ------------------                      ------------------------

                                     IN                                         IN
                                     --                                         --
        PRECIPITATION =        1.8318D+07          PRECIPITATION =                  
           STREAMFLOW =                               STREAMFLOW =                  
     GW BOUNDARY FLOW =                         GW BOUNDARY FLOW =                  


                                    OUT                                        OUT
                                    ---                                        ---
   EVAPOTRANSPIRATION =        1.3954D+07     EVAPOTRANSPIRATION =          43918.33
           STREAMFLOW =        6077828.29             STREAMFLOW =           6023.24
     GW BOUNDARY FLOW =         168463.47       GW BOUNDARY FLOW =            646.71

   INFLOWS - OUTFLOWS =       -1882511.51     INFLOWS - OUTFLOWS =         -50588.29
             --------                                   --------

 TOTAL STORAGE CHANGE =       -1876235.59         STORAGE CHANGE =         -50592.21
       --------------                             --------------
         LAND SURFACE =           6267.42           LAND SURFACE =          -1304.38
            SOIL ZONE =         410976.57              SOIL ZONE =         -27635.00
     UNSATURATED ZONE =       -1202110.57       UNSATURATED ZONE =         -11553.15
       SATURATED ZONE =       -1091369.01         SATURATED ZONE =         -10099.67

 OVERALL BUDGET ERROR =          -6275.92           BUDGET ERROR =              3.92


  PERCENT DISCREPANCY =             -0.03    PERCENT DISCREPANCY =              0.01



1
 SUMMARY VOLUMETRIC BUDGET FOR GSFLOW 
 DATE: 06 23 1981              CUMULATIVE TIME STEP:     266
 MODFLOW STRESS PERIOD      2     CURRENT TIME STEP:     266     ITERATIONS:      10

 -----------------------------------------------------------------------------------

   CUMULATIVE VOLUMES               L**3   RATES FOR THIS TIME STEP           L**3/T
   ------------------                      ------------------------

                                     IN                                         IN
                                     --                                         --
        PRECIPITATION =        1.8318D+07          PRECIPITATION =                  
           STREAMFLOW =                               STREAMFLOW =                  
     GW BOUNDARY FLOW =                         GW BOUNDARY FLOW =                  


                                    OUT                                        OUT
                                    ---                                        ---
   EVAPOTRANSPIRATION =        1.4228D+07     EVAPOTRANSPIRATION =          30663.72
           STREAMFLOW =        6119336.62             STREAMFLOW =           5874.45
     GW BOUNDARY FLOW =         172989.76       GW BOUNDARY FLOW =            646.54

   INFLOWS - OUTFLOWS =       -2202173.14     INFLOWS - OUTFLOWS =         -37184.71
             --------                                   --------

 TOTAL STORAGE CHANGE =       -2195888.77         STORAGE CHANGE =         -37182.39
       --------------                             --------------
         LAND SURFACE =                             LAND SURFACE =                  
            SOIL ZONE =         248010.04              SOIL ZONE =         -15811.24
     UNSATURATED ZONE =       -1280637.70       UNSATURATED ZONE =         -10893.91
       SATURATED ZONE =       -1163261.11         SATURATED ZONE =         -10477.25

 OVERALL BUDGET ERROR =          -6284.38           BUDGET ERROR =             -2.31


  PERCENT DISCREPANCY =             -0.03    PERCENT DISCREPANCY =             -0.01



1
 SUMMARY VOLUMETRIC BUDGET FOR GSFLOW 
 DATE: 06 30 1981              CUMULATIVE TIME STEP:     273
 MODFLOW STRESS PERIOD      2     CURRENT TIME STEP:     273     ITERATIONS:      13

 -----------------------------------------------------------------------------------

   CUMULATIVE VOLUMES               L**3   RATES FOR THIS TIME STEP           L**3/T
   ------------------                      ------------------------

                                     IN                                         IN
[...]
                                    ---                                        ---
   EVAPOTRANSPIRATION =        2.9739D+08     EVAPOTRANSPIRATION =          40953.62
           STREAMFLOW =        1.7368D+08             STREAMFLOW =           6656.98
     GW BOUNDARY FLOW =        3735339.66       GW BOUNDARY FLOW =            650.80

   INFLOWS - OUTFLOWS =       -9737490.09     INFLOWS - OUTFLOWS =         -48261.39
             --------                                   --------

 TOTAL STORAGE CHANGE =       -9555553.01         STORAGE CHANGE =         -48284.90
       --------------                             --------------
         LAND SURFACE =         152692.44           LAND SURFACE =          -6818.24
            SOIL ZONE =         244693.34              SOIL ZONE =         -21037.94
     UNSATURATED ZONE =        6088917.00       UNSATURATED ZONE =         -26431.72
       SATURATED ZONE =       -1.6042D+07         SATURATED ZONE =           6003.00

 OVERALL BUDGET ERROR =        -181937.08           BUDGET ERROR =             23.51


  PERCENT DISCREPANCY =             -0.04    PERCENT DISCREPANCY =              0.05



1
 SUMMARY VOLUMETRIC BUDGET FOR GSFLOW 
 DATE: 07 30 1996              CUMULATIVE TIME STEP:    5782
 MODFLOW STRESS PERIOD      2     CURRENT TIME STEP:    5782     ITERATIONS:      14

 -----------------------------------------------------------------------------------

   CUMULATIVE VOLUMES               L**3   RATES FOR THIS TIME STEP           L**3/T
   ------------------                      ------------------------

                                     IN                                         IN
                                     --                                         --
        PRECIPITATION =        4.6511D+08          PRECIPITATION =                  
           STREAMFLOW =                               STREAMFLOW =                  
     GW BOUNDARY FLOW =                         GW BOUNDARY FLOW =                  


                                    OUT                                        OUT
                                    ---                                        ---
   EVAPOTRANSPIRATION =        2.9765D+08     EVAPOTRANSPIRATION =          29510.51
           STREAMFLOW =        1.7372D+08             STREAMFLOW =           6508.86
     GW BOUNDARY FLOW =        3739893.54       GW BOUNDARY FLOW =            650.38

   INFLOWS - OUTFLOWS =       -1.0002D+07     INFLOWS - OUTFLOWS =         -36669.75
             --------                                   --------

 TOTAL STORAGE CHANGE =       -9820498.61         STORAGE CHANGE =         -36691.62
       --------------                             --------------
         LAND SURFACE =         112099.96           LAND SURFACE =          -4929.06
            SOIL ZONE =         162273.88              SOIL ZONE =         -11607.84
     UNSATURATED ZONE =        5911323.62       UNSATURATED ZONE =         -24707.41
       SATURATED ZONE =       -1.6006D+07         SATURATED ZONE =           4552.69

 OVERALL BUDGET ERROR =        -181794.79           BUDGET ERROR =             21.88


  PERCENT DISCREPANCY =             -0.04    PERCENT DISCREPANCY =              0.06



1
 SUMMARY VOLUMETRIC BUDGET FOR GSFLOW 
 DATE: 08 06 1996              CUMULATIVE TIME STEP:    5789
 MODFLOW STRESS PERIOD      2     CURRENT TIME STEP:    5789     ITERATIONS:      13

 -----------------------------------------------------------------------------------

   CUMULATIVE VOLUMES               L**3   RATES FOR THIS TIME STEP           L**3/T
   ------------------                      ------------------------

                                     IN                                         IN
                                     --                                         --
        PRECIPITATION =        4.6511D+08          PRECIPITATION =                  
           STREAMFLOW =                               STREAMFLOW =                  
     GW BOUNDARY FLOW =                         GW BOUNDARY FLOW =                  


                                    OUT                                        OUT
                                    ---                                        ---
   EVAPOTRANSPIRATION =        2.9780D+08     EVAPOTRANSPIRATION =          18466.60
           STREAMFLOW =        1.7377D+08             STREAMFLOW =           6310.22
     GW BOUNDARY FLOW =        3744446.06       GW BOUNDARY FLOW =            650.32

   INFLOWS - OUTFLOWS =       -1.0202D+07     INFLOWS - OUTFLOWS =         -25427.13
             --------                                   --------

 TOTAL STORAGE CHANGE =       -1.0020D+07         STORAGE CHANGE =         -25452.76
       --------------                             --------------
         LAND SURFACE =          85235.58           LAND SURFACE =          -3353.13
            SOIL ZONE =         129348.41              SOIL ZONE =          -2220.22
     UNSATURATED ZONE =        5742378.73       UNSATURATED ZONE =         -23715.43
       SATURATED ZONE =       -1.5977D+07         SATURATED ZONE =           3836.02

 OVERALL BUDGET ERROR =        -181647.06           BUDGET ERROR =             25.62


  PERCENT DISCREPANCY =             -0.04    PERCENT DISCREPANCY =              0.10



1
 SUMMARY VOLUMETRIC BUDGET FOR GSFLOW 
 DATE: 08 13 1996              CUMULATIVE TIME STEP:    5796
 MODFLOW STRESS PERIOD      2     CURRENT TIME STEP:    5796     ITERATIONS:      14

 -----------------------------------------------------------------------------------

   CUMULATIVE VOLUMES               L**3   RATES FOR THIS TIME STEP           L**3/T
   ------------------                      ------------------------

                                     IN                                         IN
                                     --                                         --
        PRECIPITATION =        4.6531D+08          PRECIPITATION =          54456.73
           STREAMFLOW =                               STREAMFLOW =                  
     GW BOUNDARY FLOW =                         GW BOUNDARY FLOW =                  


                                    OUT                                        OUT
                                    ---                                        ---
   EVAPOTRANSPIRATION =        2.9798D+08     EVAPOTRANSPIRATION =          36314.79
           STREAMFLOW =        1.7381D+08             STREAMFLOW =           7501.46
     GW BOUNDARY FLOW =        3748997.89       GW BOUNDARY FLOW =            650.28

   INFLOWS - OUTFLOWS =       -1.0231D+07     INFLOWS - OUTFLOWS =           9990.20
             --------                                   --------

 TOTAL STORAGE CHANGE =       -1.0050D+07         STORAGE CHANGE =           9963.39
       --------------                             --------------
         LAND SURFACE =          92673.79           LAND SURFACE =          -3493.45
            SOIL ZONE =         229988.11              SOIL ZONE =          32947.98
     UNSATURATED ZONE =        5580415.86       UNSATURATED ZONE =         -22986.81
       SATURATED ZONE =       -1.5953D+07         SATURATED ZONE =           3495.67

 OVERALL BUDGET ERROR =        -181470.38           BUDGET ERROR =             26.82


  PERCENT DISCREPANCY =             -0.04    PERCENT DISCREPANCY =              0.05



1
 SUMMARY VOLUMETRIC BUDGET FOR GSFLOW 
 DATE: 08 20 1996              CUMULATIVE TIME STEP:    5803
 MODFLOW STRESS PERIOD      2     CURRENT TIME STEP:    5803     ITERATIONS:      13

 -----------------------------------------------------------------------------------

   CUMULATIVE VOLUMES               L**3   RATES FOR THIS TIME STEP           L**3/T
   ------------------                      ------------------------

                                     IN                                         IN
                                     --                                         --
        PRECIPITATION =        4.6531D+08          PRECIPITATION =                  
           STREAMFLOW =                               STREAMFLOW =                  
     GW BOUNDARY FLOW =                         GW BOUNDARY FLOW =                  


                                    OUT                                        OUT
                                    ---                                        ---
   EVAPOTRANSPIRATION =        2.9818D+08     EVAPOTRANSPIRATION =          18224.21
           STREAMFLOW =        1.7386D+08             STREAMFLOW =           6118.88
     GW BOUNDARY FLOW =        3753548.26       GW BOUNDARY FLOW =            649.88

   INFLOWS - OUTFLOWS =       -1.0482D+07     INFLOWS - OUTFLOWS =         -24992.98
             --------                                   --------

 TOTAL STORAGE CHANGE =       -1.0301D+07         STORAGE CHANGE =         -25021.33
       --------------                             --------------
         LAND SURFACE =          40251.07           LAND SURFACE =          -2042.85
            SOIL ZONE =         168073.17              SOIL ZONE =          -3596.95
     UNSATURATED ZONE =        5420174.05       UNSATURATED ZONE =         -22523.77
       SATURATED ZONE =       -1.5929D+07         SATURATED ZONE =           3142.23

 OVERALL BUDGET ERROR =        -181291.31           BUDGET ERROR =             28.35


  PERCENT DISCREPANCY =             -0.04    PERCENT DISCREPANCY =              0.11



1
 SUMMARY VOLUMETRIC BUDGET FOR GSFLOW 
 DATE: 08 27 1996              CUMULATIVE TIME STEP:    5810
 MODFLOW STRESS PERIOD      2     CURRENT TIME STEP:    5810     ITERATIONS:      17

 -----------------------------------------------------------------------------------

   CUMULATIVE VOLUMES               L**3   RATES FOR THIS TIME STEP           L**3/T
   ------------------                      ------------------------

                                     IN                                         IN
                                     --                                         --
        PRECIPITATION =        4.6531D+08          PRECIPITATION =                  
           STREAMFLOW =                               STREAMFLOW =                  
     GW BOUNDARY FLOW =                         GW BOUNDARY FLOW =                  


                                    OUT                                        OUT
                                    ---                                        ---
   EVAPOTRANSPIRATION =        2.9832D+08     EVAPOTRANSPIRATION =          14530.39
           STREAMFLOW =        1.7390D+08             STREAMFLOW =           5967.09
     GW BOUNDARY FLOW =        3758095.91       GW BOUNDARY FLOW =            649.51

   INFLOWS - OUTFLOWS =       -1.0667D+07     INFLOWS - OUTFLOWS =         -21146.99
             --------                                   --------

 TOTAL STORAGE CHANGE =       -1.0486D+07         STORAGE CHANGE =         -21158.66
       --------------                             --------------
         LAND SURFACE =          26150.57           LAND SURFACE =          -1370.47
            SOIL ZONE =         131727.52              SOIL ZONE =           -657.39
     UNSATURATED ZONE =        5267140.65       UNSATURATED ZONE =         -21225.58
       SATURATED ZONE =       -1.5911D+07         SATURATED ZONE =           2094.77

 OVERALL BUDGET ERROR =        -181118.74           BUDGET ERROR =             11.67


  PERCENT DISCREPANCY =             -0.04    PERCENT DISCREPANCY =              0.06



1
 SUMMARY VOLUMETRIC BUDGET FOR GSFLOW 
 DATE: 09 03 1996              CUMULATIVE TIME STEP:    5817
 MODFLOW STRESS PERIOD      2     CURRENT TIME STEP:    5817     ITERATIONS:      13

 -----------------------------------------------------------------------------------

   CUMULATIVE VOLUMES               L**3   RATES FOR THIS TIME STEP           L**3/T
   ------------------                      ------------------------

                                     IN                                         IN
                                     --                                         --
        PRECIPITATION =        4.6531D+08          PRECIPITATION =                  
           STREAMFLOW =                               STREAMFLOW =                  
     GW BOUNDARY FLOW =                         GW BOUNDARY FLOW =                  


                                    OUT                                        OUT
                                    ---                                        ---
   EVAPOTRANSPIRATION =        2.9843D+08     EVAPOTRANSPIRATION =          13423.73
           STREAMFLOW =        1.7394D+08             STREAMFLOW =           5866.01
     GW BOUNDARY FLOW =        3762640.80       GW BOUNDARY FLOW =            649.11

   INFLOWS - OUTFLOWS =       -1.0821D+07     INFLOWS - OUTFLOWS =         -19938.85
             --------                                   --------

 TOTAL STORAGE CHANGE =       -1.0640D+07         STORAGE CHANGE =         -19963.72
       --------------                             --------------
         LAND SURFACE =          17057.93           LAND SURFACE =          -1080.58
            SOIL ZONE =         120036.51              SOIL ZONE =             42.82
     UNSATURATED ZONE =        5124065.74       UNSATURATED ZONE =         -19855.99
       SATURATED ZONE =       -1.5901D+07         SATURATED ZONE =            930.04

 OVERALL BUDGET ERROR =        -180960.95           BUDGET ERROR =             24.87


  PERCENT DISCREPANCY =             -0.04    PERCENT DISCREPANCY =              0.12



1
 SUMMARY VOLUMETRIC BUDGET FOR GSFLOW 
 DATE: 09 10 1996              CUMULATIVE TIME STEP:    5824
 MODFLOW STRESS PERIOD      2     CURRENT TIME STEP:    5824     ITERATIONS:      13

 -----------------------------------------------------------------------------------

   CUMULATIVE VOLUMES               L**3   RATES FOR THIS TIME STEP           L**3/T
   ------------------                      ------------------------

                                     IN                                         IN
                                     --                                         --
        PRECIPITATION =        4.6531D+08          PRECIPITATION =                  
           STREAMFLOW =                               STREAMFLOW =                  
     GW BOUNDARY FLOW =                         GW BOUNDARY FLOW =                  


                                    OUT                                        OUT
                                    ---                                        ---
   EVAPOTRANSPIRATION =        2.9851D+08     EVAPOTRANSPIRATION =          12838.01
           STREAMFLOW =        1.7398D+08             STREAMFLOW =           5774.34
     GW BOUNDARY FLOW =        3767182.92       GW BOUNDARY FLOW =            648.71

   INFLOWS - OUTFLOWS =       -1.0949D+07     INFLOWS - OUTFLOWS =         -19261.06
             --------                                   --------

 TOTAL STORAGE CHANGE =       -1.0768D+07         STORAGE CHANGE =         -19282.98
       --------------                             --------------
         LAND SURFACE =          10644.28           LAND SURFACE =           -976.08
            SOIL ZONE =         129230.22              SOIL ZONE =            408.48
     UNSATURATED ZONE =        4985122.12       UNSATURATED ZONE =         -19729.49
       SATURATED ZONE =       -1.5893D+07         SATURATED ZONE =           1014.12

 OVERALL BUDGET ERROR =        -180844.54           BUDGET ERROR =             21.92


  PERCENT DISCREPANCY =             -0.04    PERCENT DISCREPANCY =              0.11



1
 SUMMARY VOLUMETRIC BUDGET FOR GSFLOW 
 DATE: 09 17 1996              CUMULATIVE TIME STEP:    5831
 MODFLOW STRESS PERIOD      2     CURRENT TIME STEP:    5831     ITERATIONS:      18

 -----------------------------------------------------------------------------------

   CUMULATIVE VOLUMES               L**3   RATES FOR THIS TIME STEP           L**3/T
   ------------------                      ------------------------

                                     IN                                         IN
                                     --                                         --
        PRECIPITATION =        4.6637D+08          PRECIPITATION =                  
           STREAMFLOW =                               STREAMFLOW =                  
     GW BOUNDARY FLOW =                         GW BOUNDARY FLOW =                  


                                    OUT                                        OUT
                                    ---                                        ---
   EVAPOTRANSPIRATION =        2.9872D+08     EVAPOTRANSPIRATION =          74571.48
           STREAMFLOW =        1.7404D+08             STREAMFLOW =           9623.94
     GW BOUNDARY FLOW =        3771724.36       GW BOUNDARY FLOW =            649.09

   INFLOWS - OUTFLOWS =       -1.0169D+07     INFLOWS - OUTFLOWS =         -84844.52
             --------                                   --------

 TOTAL STORAGE CHANGE =       -9988453.11         STORAGE CHANGE =         -84861.11
       --------------                             --------------
         LAND SURFACE =           6180.90           LAND SURFACE =         -34896.28
            SOIL ZONE =        1041610.21              SOIL ZONE =         -31440.86
     UNSATURATED ZONE =        4850078.45       UNSATURATED ZONE =         -19070.93
       SATURATED ZONE =       -1.5886D+07         SATURATED ZONE =            546.97

 OVERALL BUDGET ERROR =        -180766.88           BUDGET ERROR =             16.59


  PERCENT DISCREPANCY =             -0.04    PERCENT DISCREPANCY =              0.02



1
 SUMMARY VOLUMETRIC BUDGET FOR GSFLOW 
 DATE: 09 24 1996              CUMULATIVE TIME STEP:    5838
 MODFLOW STRESS PERIOD      2     CURRENT TIME STEP:    5838     ITERATIONS:      18

 -----------------------------------------------------------------------------------

   CUMULATIVE VOLUMES               L**3   RATES FOR THIS TIME STEP           L**3/T
   ------------------                      ------------------------

                                     IN                                         IN
                                     --                                         --
        PRECIPITATION =        4.6637D+08          PRECIPITATION =                  
           STREAMFLOW =                               STREAMFLOW =                  
     GW BOUNDARY FLOW =                         GW BOUNDARY FLOW =                  


                                    OUT                                        OUT
                                    ---                                        ---
   EVAPOTRANSPIRATION =        2.9923D+08     EVAPOTRANSPIRATION =          50442.29
           STREAMFLOW =        1.7409D+08             STREAMFLOW =           6068.08
     GW BOUNDARY FLOW =        3776263.97       GW BOUNDARY FLOW =            648.19

   INFLOWS - OUTFLOWS =       -1.0738D+07     INFLOWS - OUTFLOWS =         -57158.55
             --------                                   --------

 TOTAL STORAGE CHANGE =       -1.0558D+07         STORAGE CHANGE =         -57173.70
       --------------                             --------------
         LAND SURFACE =           2675.39           LAND SURFACE =           -481.80
            SOIL ZONE =         605030.74              SOIL ZONE =         -38347.29
     UNSATURATED ZONE =        4718708.00       UNSATURATED ZONE =         -18519.21
       SATURATED ZONE =       -1.5884D+07         SATURATED ZONE =            174.60

 OVERALL BUDGET ERROR =        -180677.21           BUDGET ERROR =             15.15


  PERCENT DISCREPANCY =             -0.04    PERCENT DISCREPANCY =              0.03



