1
 SUMMARY VOLUMETRIC BUDGET FOR GSFLOW 
 DATE: 10 07 1980              CUMULATIVE TIME STEP:       7
 MODFLOW STRESS PERIOD      2     CURRENT TIME STEP:       7     ITERATIONS:       6

 -----------------------------------------------------------------------------------

   CUMULATIVE VOLUMES               L**3   RATES FOR THIS TIME STEP           L**3/T
   ------------------                      ------------------------

                                     IN                                         IN
                                     --                                         --
        PRECIPITATION =                            PRECIPITATION =                  
           STREAMFLOW =                               STREAMFLOW =                  
     GW BOUNDARY FLOW =                         GW BOUNDARY FLOW =                  


                                    OUT                                        OUT
                                    ---                                        ---
   EVAPOTRANSPIRATION =          63501.79     EVAPOTRANSPIRATION =           9679.39
           STREAMFLOW =          42957.25             STREAMFLOW =           6065.74
     GW BOUNDARY FLOW =           4541.44       GW BOUNDARY FLOW =            648.70

   INFLOWS - OUTFLOWS =        -111000.48     INFLOWS - OUTFLOWS =         -16393.83
             --------                                   --------

 TOTAL STORAGE CHANGE =        -110604.39         STORAGE CHANGE =         -16332.92
       --------------                             --------------
         LAND SURFACE =                             LAND SURFACE =                  
            SOIL ZONE =          47013.03              SOIL ZONE =           6016.72
     UNSATURATED ZONE =        -144778.74       UNSATURATED ZONE =         -20360.77
       SATURATED ZONE =         -12838.68         SATURATED ZONE =          -1988.86

 OVERALL BUDGET ERROR =           -396.09           BUDGET ERROR =            -60.91


  PERCENT DISCREPANCY =             -0.36    PERCENT DISCREPANCY =             -0.37



1
 SUMMARY VOLUMETRIC BUDGET FOR GSFLOW 
 DATE: 10 14 1980              CUMULATIVE TIME STEP:      14
 MODFLOW STRESS PERIOD      2     CURRENT TIME STEP:      14     ITERATIONS:       6

 -----------------------------------------------------------------------------------

   CUMULATIVE VOLUMES               L**3   RATES FOR THIS TIME STEP           L**3/T
   ------------------                      ------------------------

                                     IN                                         IN
                                     --                                         --
        PRECIPITATION =         650780.39          PRECIPITATION =         164754.68
           STREAMFLOW =                               STREAMFLOW =                  
     GW BOUNDARY FLOW =                         GW BOUNDARY FLOW =                  


                                    OUT                                        OUT
                                    ---                                        ---
   EVAPOTRANSPIRATION =         147658.75     EVAPOTRANSPIRATION =           7975.74
           STREAMFLOW =          92676.53             STREAMFLOW =           7494.55
     GW BOUNDARY FLOW =           9082.78       GW BOUNDARY FLOW =            648.89

   INFLOWS - OUTFLOWS =         401362.33     INFLOWS - OUTFLOWS =         148635.50
             --------                                   --------

 TOTAL STORAGE CHANGE =         402202.33         STORAGE CHANGE =         148696.83
       --------------                             --------------
         LAND SURFACE =         277680.17           LAND SURFACE =         136619.69
            SOIL ZONE =         436774.45              SOIL ZONE =          34107.31
     UNSATURATED ZONE =        -284456.48       UNSATURATED ZONE =         -19625.54
       SATURATED ZONE =         -27795.82         SATURATED ZONE =          -2404.64

 OVERALL BUDGET ERROR =           -840.00           BUDGET ERROR =            -61.33


  PERCENT DISCREPANCY =             -0.13    PERCENT DISCREPANCY =             -0.04



1
 SUMMARY VOLUMETRIC BUDGET FOR GSFLOW 
 DATE: 10 21 1980              CUMULATIVE TIME STEP:      21
 MODFLOW STRESS PERIOD      2     CURRENT TIME STEP:      21     ITERATIONS:       6

 -----------------------------------------------------------------------------------

   CUMULATIVE VOLUMES               L**3   RATES FOR THIS TIME STEP           L**3/T
   ------------------                      ------------------------

                                     IN                                         IN
                                     --                                         --
        PRECIPITATION =         733156.23          PRECIPITATION =                  
           STREAMFLOW =                               STREAMFLOW =                  
     GW BOUNDARY FLOW =                         GW BOUNDARY FLOW =                  


                                    OUT                                        OUT
                                    ---                                        ---
   EVAPOTRANSPIRATION =         376396.22     EVAPOTRANSPIRATION =          37106.79
           STREAMFLOW =         144889.05             STREAMFLOW =           7105.89
     GW BOUNDARY FLOW =          13624.56       GW BOUNDARY FLOW =            648.77

   INFLOWS - OUTFLOWS =         198246.40     INFLOWS - OUTFLOWS =         -44861.45
             --------                                   --------

 TOTAL STORAGE CHANGE =         199538.95         STORAGE CHANGE =         -44792.32
       --------------                             --------------
         LAND SURFACE =           2252.39           LAND SURFACE =          -3155.25
            SOIL ZONE =         662435.21              SOIL ZONE =         -19834.00
     UNSATURATED ZONE =        -418636.46       UNSATURATED ZONE =         -18802.40
       SATURATED ZONE =         -46512.19         SATURATED ZONE =          -3000.67

 OVERALL BUDGET ERROR =          -1292.54           BUDGET ERROR =            -69.12


  PERCENT DISCREPANCY =             -0.18    PERCENT DISCREPANCY =             -0.15



1
 SUMMARY VOLUMETRIC BUDGET FOR GSFLOW 
 DATE: 10 28 1980              CUMULATIVE TIME STEP:      28
 MODFLOW STRESS PERIOD      2     CURRENT TIME STEP:      28     ITERATIONS:       6

 -----------------------------------------------------------------------------------

   CUMULATIVE VOLUMES               L**3   RATES FOR THIS TIME STEP           L**3/T
   ------------------                      ------------------------

                                     IN                                         IN
                                     --                                         --
        PRECIPITATION =        1070899.96          PRECIPITATION =                  
           STREAMFLOW =                               STREAMFLOW =                  
     GW BOUNDARY FLOW =                         GW BOUNDARY FLOW =                  


                                    OUT                                        OUT
                                    ---                                        ---
   EVAPOTRANSPIRATION =         557223.63     EVAPOTRANSPIRATION =          23594.69
           STREAMFLOW =         199832.31             STREAMFLOW =           7989.29
     GW BOUNDARY FLOW =          18165.91       GW BOUNDARY FLOW =            648.81

   INFLOWS - OUTFLOWS =         295678.11     INFLOWS - OUTFLOWS =         -32232.78
             --------                                   --------

 TOTAL STORAGE CHANGE =         297478.64         STORAGE CHANGE =         -32158.02
       --------------                             --------------
         LAND SURFACE =          24622.16           LAND SURFACE =         -30947.62
            SOIL ZONE =         889241.91              SOIL ZONE =          20269.15
     UNSATURATED ZONE =        -547244.11       UNSATURATED ZONE =         -17993.05
       SATURATED ZONE =         -69141.33         SATURATED ZONE =          -3486.49

 OVERALL BUDGET ERROR =          -1800.53           BUDGET ERROR =            -74.77


  PERCENT DISCREPANCY =             -0.17    PERCENT DISCREPANCY =             -0.23



1
 SUMMARY VOLUMETRIC BUDGET FOR GSFLOW 
 DATE: 11 04 1980              CUMULATIVE TIME STEP:      35
 MODFLOW STRESS PERIOD      2     CURRENT TIME STEP:      35     ITERATIONS:       8

 -----------------------------------------------------------------------------------

   CUMULATIVE VOLUMES               L**3   RATES FOR THIS TIME STEP           L**3/T
   ------------------                      ------------------------

                                     IN                                         IN
                                     --                                         --
        PRECIPITATION =        1070899.96          PRECIPITATION =                  
           STREAMFLOW =                               STREAMFLOW =                  
     GW BOUNDARY FLOW =                         GW BOUNDARY FLOW =                  


                                    OUT                                        OUT
                                    ---                                        ---
   EVAPOTRANSPIRATION =         854957.80     EVAPOTRANSPIRATION =          38437.82
           STREAMFLOW =         252299.69             STREAMFLOW =           7018.15
     GW BOUNDARY FLOW =          22706.92       GW BOUNDARY FLOW =            648.64

   INFLOWS - OUTFLOWS =         -59064.44     INFLOWS - OUTFLOWS =         -46104.62
             --------                                   --------

 TOTAL STORAGE CHANGE =         -56842.15         STORAGE CHANGE =         -46052.92
       --------------                             --------------
         LAND SURFACE =                             LAND SURFACE =                  
            SOIL ZONE =         710224.48              SOIL ZONE =         -24516.95
     UNSATURATED ZONE =        -670670.34       UNSATURATED ZONE =         -17361.21
       SATURATED ZONE =         -96396.30         SATURATED ZONE =          -4174.76

 OVERALL BUDGET ERROR =          -2222.29           BUDGET ERROR =            -51.70


  PERCENT DISCREPANCY =             -0.20    PERCENT DISCREPANCY =             -0.11



1
 SUMMARY VOLUMETRIC BUDGET FOR GSFLOW 
 DATE: 11 11 1980              CUMULATIVE TIME STEP:      42
 MODFLOW STRESS PERIOD      2     CURRENT TIME STEP:      42     ITERATIONS:       7

 -----------------------------------------------------------------------------------

   CUMULATIVE VOLUMES               L**3   RATES FOR THIS TIME STEP           L**3/T
   ------------------                      ------------------------

                                     IN                                         IN
                                     --                                         --
        PRECIPITATION =        1573759.34          PRECIPITATION =         255182.10
           STREAMFLOW =                               STREAMFLOW =                  
     GW BOUNDARY FLOW =                         GW BOUNDARY FLOW =                  


                                    OUT                                        OUT
                                    ---                                        ---
   EVAPOTRANSPIRATION =        1066447.38     EVAPOTRANSPIRATION =          14941.32
           STREAMFLOW =         308267.06             STREAMFLOW =          10769.21
     GW BOUNDARY FLOW =          27247.64       GW BOUNDARY FLOW =            648.84

   INFLOWS - OUTFLOWS =         171797.25     INFLOWS - OUTFLOWS =         228822.73
             --------                                   --------

 TOTAL STORAGE CHANGE =         174485.93         STORAGE CHANGE =         228877.78
       --------------                             --------------
         LAND SURFACE =          78611.70           LAND SURFACE =          76658.22
            SOIL ZONE =        1011568.54              SOIL ZONE =         172853.09
     UNSATURATED ZONE =        -789266.34       UNSATURATED ZONE =         -16534.66
       SATURATED ZONE =        -126427.97         SATURATED ZONE =          -4098.87

 OVERALL BUDGET ERROR =          -2688.67           BUDGET ERROR =            -55.05


  PERCENT DISCREPANCY =             -0.17    PERCENT DISCREPANCY =             -0.02



1
 SUMMARY VOLUMETRIC BUDGET FOR GSFLOW 
 DATE: 11 18 1980              CUMULATIVE TIME STEP:      49
 MODFLOW STRESS PERIOD      2     CURRENT TIME STEP:      49     ITERATIONS:       6

 -----------------------------------------------------------------------------------

   CUMULATIVE VOLUMES               L**3   RATES FOR THIS TIME STEP           L**3/T
   ------------------                      ------------------------

                                     IN                                         IN
                                     --                                         --
        PRECIPITATION =        1573759.34          PRECIPITATION =                  
           STREAMFLOW =                               STREAMFLOW =                  
     GW BOUNDARY FLOW =                         GW BOUNDARY FLOW =                  


                                    OUT                                        OUT
                                    ---                                        ---
   EVAPOTRANSPIRATION =        1154908.75     EVAPOTRANSPIRATION =          16640.32
           STREAMFLOW =         371170.29             STREAMFLOW =           9356.75
     GW BOUNDARY FLOW =          31789.52       GW BOUNDARY FLOW =            648.86

   INFLOWS - OUTFLOWS =          15890.77     INFLOWS - OUTFLOWS =         -26645.93
             --------                                   --------

 TOTAL STORAGE CHANGE =          19151.03         STORAGE CHANGE =         -26561.40
       --------------                             --------------
         LAND SURFACE =           8650.46           LAND SURFACE =          -6201.95
            SOIL ZONE =        1072801.18              SOIL ZONE =            474.62
     UNSATURATED ZONE =        -903192.89       UNSATURATED ZONE =         -16031.34
       SATURATED ZONE =        -159107.72         SATURATED ZONE =          -4802.73

 OVERALL BUDGET ERROR =          -3260.26           BUDGET ERROR =            -84.53


  PERCENT DISCREPANCY =             -0.21    PERCENT DISCREPANCY =             -0.32



1
 SUMMARY VOLUMETRIC BUDGET FOR GSFLOW 
 DATE: 11 25 1980              CUMULATIVE TIME STEP:      56
 MODFLOW STRESS PERIOD      2     CURRENT TIME STEP:      56     ITERATIONS:       8

 -----------------------------------------------------------------------------------

   CUMULATIVE VOLUMES               L**3   RATES FOR THIS TIME STEP           L**3/T
   ------------------                      ------------------------

                                     IN                                         IN
                                     --                                         --
        PRECIPITATION =        1648813.76          PRECIPITATION =                  
           STREAMFLOW =                               STREAMFLOW =                  
     GW BOUNDARY FLOW =                         GW BOUNDARY FLOW =                  


                                    OUT                                        OUT
                                    ---                                        ---
   EVAPOTRANSPIRATION =        1230201.36     EVAPOTRANSPIRATION =           8792.89
           STREAMFLOW =         438351.07             STREAMFLOW =           9949.04
     GW BOUNDARY FLOW =          36331.80       GW BOUNDARY FLOW =            648.93

   INFLOWS - OUTFLOWS =         -56070.47     INFLOWS - OUTFLOWS =         -19390.86
             --------                                   --------

 TOTAL STORAGE CHANGE =         -52352.73         STORAGE CHANGE =         -19336.01
       --------------                             --------------
         LAND SURFACE =          55166.55           LAND SURFACE =          -8744.72
            SOIL ZONE =        1100539.60              SOIL ZONE =          10159.81
     UNSATURATED ZONE =       -1012812.33       UNSATURATED ZONE =         -15401.38
       SATURATED ZONE =        -195246.55         SATURATED ZONE =          -5349.72

 OVERALL BUDGET ERROR =          -3717.74           BUDGET ERROR =            -54.85


  PERCENT DISCREPANCY =             -0.22    PERCENT DISCREPANCY =             -0.28



1
 SUMMARY VOLUMETRIC BUDGET FOR GSFLOW 
 DATE: 12 02 1980              CUMULATIVE TIME STEP:      63
 MODFLOW STRESS PERIOD      2     CURRENT TIME STEP:      63     ITERATIONS:       8

 -----------------------------------------------------------------------------------

   CUMULATIVE VOLUMES               L**3   RATES FOR THIS TIME STEP           L**3/T
   ------------------                      ------------------------

                                     IN                                         IN
                                     --                                         --
        PRECIPITATION =        2076620.74          PRECIPITATION =                  
           STREAMFLOW =                               STREAMFLOW =                  
     GW BOUNDARY FLOW =                         GW BOUNDARY FLOW =                  


                                    OUT                                        OUT
                                    ---                                        ---
   EVAPOTRANSPIRATION =        1423642.12     EVAPOTRANSPIRATION =          34188.85
           STREAMFLOW =         523297.47             STREAMFLOW =          15234.20
     GW BOUNDARY FLOW =          40875.74       GW BOUNDARY FLOW =            649.44

   INFLOWS - OUTFLOWS =          88805.41     INFLOWS - OUTFLOWS =         -50072.49
             --------                                   --------

 TOTAL STORAGE CHANGE =          92877.60         STORAGE CHANGE =         -50025.09
       --------------                             --------------
         LAND SURFACE =         152558.41           LAND SURFACE =         -75202.38
            SOIL ZONE =        1286005.83              SOIL ZONE =          42854.93
     UNSATURATED ZONE =       -1114354.20       UNSATURATED ZONE =         -13045.39
       SATURATED ZONE =        -231332.44         SATURATED ZONE =          -4632.24

 OVERALL BUDGET ERROR =          -4072.19           BUDGET ERROR =            -47.40


  PERCENT DISCREPANCY =             -0.20    PERCENT DISCREPANCY =             -0.09



1
 SUMMARY VOLUMETRIC BUDGET FOR GSFLOW 
 DATE: 12 09 1980              CUMULATIVE TIME STEP:      70
 MODFLOW STRESS PERIOD      2     CURRENT TIME STEP:      70     ITERATIONS:       8

 -----------------------------------------------------------------------------------

   CUMULATIVE VOLUMES               L**3   RATES FOR THIS TIME STEP           L**3/T
   ------------------                      ------------------------

                                     IN                                         IN
                                     --                                         --
        PRECIPITATION =        4284363.13          PRECIPITATION =                  
           STREAMFLOW =                               STREAMFLOW =                  
     GW BOUNDARY FLOW =                         GW BOUNDARY FLOW =                  


                                    OUT                                        OUT
                                    ---                                        ---
   EVAPOTRANSPIRATION =        1447060.76     EVAPOTRANSPIRATION =           2942.37
           STREAMFLOW =         622553.79             STREAMFLOW =          14458.33
     GW BOUNDARY FLOW =          45422.60       GW BOUNDARY FLOW =            649.64

   INFLOWS - OUTFLOWS =        2169325.97     INFLOWS - OUTFLOWS =         -18050.34
             --------                                   --------

 TOTAL STORAGE CHANGE =        2173825.84         STORAGE CHANGE =         -18005.44
       --------------                             --------------
         LAND SURFACE =        2335225.14           LAND SURFACE =          -2942.37
            SOIL ZONE =        1321839.43              SOIL ZONE =           5169.33
     UNSATURATED ZONE =       -1212730.88       UNSATURATED ZONE =         -14221.39
       SATURATED ZONE =        -270507.85         SATURATED ZONE =          -6011.01

 OVERALL BUDGET ERROR =          -4499.87           BUDGET ERROR =            -44.90


  PERCENT DISCREPANCY =             -0.10    PERCENT DISCREPANCY =             -0.25



1
 SUMMARY VOLUMETRIC BUDGET FOR GSFLOW 
 DATE: 12 16 1980              CUMULATIVE TIME STEP:      77
 MODFLOW STRESS PERIOD      2     CURRENT TIME STEP:      77     ITERATIONS:       7

 -----------------------------------------------------------------------------------

   CUMULATIVE VOLUMES               L**3   RATES FOR THIS TIME STEP           L**3/T
   ------------------                      ------------------------

                                     IN                                         IN
                                     --                                         --
        PRECIPITATION =        4284363.13          PRECIPITATION =                  
           STREAMFLOW =                               STREAMFLOW =                  
     GW BOUNDARY FLOW =                         GW BOUNDARY FLOW =                  


                                    OUT                                        OUT
                                    ---                                        ---
   EVAPOTRANSPIRATION =        1589060.37     EVAPOTRANSPIRATION =          33888.91
           STREAMFLOW =         742088.81             STREAMFLOW =          24743.27
     GW BOUNDARY FLOW =          49971.18       GW BOUNDARY FLOW =            650.23

   INFLOWS - OUTFLOWS =        1903242.76     INFLOWS - OUTFLOWS =         -59282.41
             --------                                   --------

 TOTAL STORAGE CHANGE =        1908107.63         STORAGE CHANGE =         -59223.03
       --------------                             --------------
         LAND SURFACE =        2023963.98           LAND SURFACE =        -129017.62
            SOIL ZONE =        1498051.44              SOIL ZONE =          83497.64
     UNSATURATED ZONE =       -1302786.89       UNSATURATED ZONE =          -9207.60
       SATURATED ZONE =        -311120.90         SATURATED ZONE =          -4495.45

 OVERALL BUDGET ERROR =          -4864.87           BUDGET ERROR =            -59.38


  PERCENT DISCREPANCY =             -0.11    PERCENT DISCREPANCY =             -0.10



1
 SUMMARY VOLUMETRIC BUDGET FOR GSFLOW 
 DATE: 12 23 1980              CUMULATIVE TIME STEP:      84
 MODFLOW STRESS PERIOD      2     CURRENT TIME STEP:      84     ITERATIONS:       9

 -----------------------------------------------------------------------------------

   CUMULATIVE VOLUMES               L**3   RATES FOR THIS TIME STEP           L**3/T
   ------------------                      ------------------------

                                     IN                                         IN
                                     --                                         --
        PRECIPITATION =        4516755.31          PRECIPITATION =                  
           STREAMFLOW =                               STREAMFLOW =                  
     GW BOUNDARY FLOW =                         GW BOUNDARY FLOW =                  


                                    OUT                                        OUT
                                    ---                                        ---
   EVAPOTRANSPIRATION =        1795112.75     EVAPOTRANSPIRATION =          35140.80
           STREAMFLOW =         967989.49             STREAMFLOW =          30089.80
     GW BOUNDARY FLOW =          54531.42       GW BOUNDARY FLOW =            651.90

   INFLOWS - OUTFLOWS =        1699121.65     INFLOWS - OUTFLOWS =         -65882.49
             --------                                   --------

 TOTAL STORAGE CHANGE =        1704256.06         STORAGE CHANGE =         -65851.49
       --------------                             --------------
         LAND SURFACE =        1433308.48           LAND SURFACE =         -48192.95
            SOIL ZONE =        1956961.91              SOIL ZONE =          -6624.35
     UNSATURATED ZONE =       -1346339.34       UNSATURATED ZONE =          -6290.37
       SATURATED ZONE =        -339674.99         SATURATED ZONE =          -4743.82

 OVERALL BUDGET ERROR =          -5134.41           BUDGET ERROR =            -31.01


  PERCENT DISCREPANCY =             -0.11    PERCENT DISCREPANCY =             -0.05



1
 SUMMARY VOLUMETRIC BUDGET FOR GSFLOW 
 DATE: 12 30 1980              CUMULATIVE TIME STEP:      91
 MODFLOW STRESS PERIOD      2     CURRENT TIME STEP:      91     ITERATIONS:       9

 -----------------------------------------------------------------------------------

   CUMULATIVE VOLUMES               L**3   RATES FOR THIS TIME STEP           L**3/T
   ------------------                      ------------------------

                                     IN                                         IN
                                     --                                         --
        PRECIPITATION =        4516755.31          PRECIPITATION =                  
           STREAMFLOW =                               STREAMFLOW =                  
     GW BOUNDARY FLOW =                         GW BOUNDARY FLOW =                  


                                    OUT                                        OUT
                                    ---                                        ---
   EVAPOTRANSPIRATION =        2155739.11     EVAPOTRANSPIRATION =          45887.39
           STREAMFLOW =        1211918.17             STREAMFLOW =          27165.38
     GW BOUNDARY FLOW =          59097.99       GW BOUNDARY FLOW =            652.35

   INFLOWS - OUTFLOWS =        1090000.04     INFLOWS - OUTFLOWS =         -73705.12
             --------                                   --------

 TOTAL STORAGE CHANGE =        1095268.31         STORAGE CHANGE =         -73689.58
       --------------                             --------------
         LAND SURFACE =         641176.34           LAND SURFACE =         -40371.69
            SOIL ZONE =        2181734.86              SOIL ZONE =         -23717.77
     UNSATURATED ZONE =       -1361655.23       UNSATURATED ZONE =          -5205.84
       SATURATED ZONE =        -365987.66         SATURATED ZONE =          -4394.28

 OVERALL BUDGET ERROR =          -5268.27           BUDGET ERROR =            -15.54


  PERCENT DISCREPANCY =             -0.12    PERCENT DISCREPANCY =             -0.02



1
 SUMMARY VOLUMETRIC BUDGET FOR GSFLOW 
 DATE: 01 06 1981              CUMULATIVE TIME STEP:      98
 MODFLOW STRESS PERIOD      2     CURRENT TIME STEP:      98     ITERATIONS:       8

 -----------------------------------------------------------------------------------

   CUMULATIVE VOLUMES               L**3   RATES FOR THIS TIME STEP           L**3/T
   ------------------                      ------------------------

                                     IN                                         IN
                                     --                                         --
        PRECIPITATION =        5004445.82          PRECIPITATION =                  
           STREAMFLOW =                               STREAMFLOW =                  
     GW BOUNDARY FLOW =                         GW BOUNDARY FLOW =                  


                                    OUT                                        OUT
                                    ---                                        ---
   EVAPOTRANSPIRATION =        2383661.25     EVAPOTRANSPIRATION =          21388.47
           STREAMFLOW =        1365761.71             STREAMFLOW =          21179.83
     GW BOUNDARY FLOW =          63659.51       GW BOUNDARY FLOW =            651.25

   INFLOWS - OUTFLOWS =        1191363.34     INFLOWS - OUTFLOWS =         -43219.55
             --------                                   --------

 TOTAL STORAGE CHANGE =        1196786.52         STORAGE CHANGE =         -43194.68
       --------------                             --------------
         LAND SURFACE =         837061.66           LAND SURFACE =         -30417.14
            SOIL ZONE =        2192535.63              SOIL ZONE =           3031.65
     UNSATURATED ZONE =       -1428757.97       UNSATURATED ZONE =         -10080.34
       SATURATED ZONE =        -404052.80         SATURATED ZONE =          -5728.85

 OVERALL BUDGET ERROR =          -5423.18           BUDGET ERROR =            -24.87


  PERCENT DISCREPANCY =             -0.11    PERCENT DISCREPANCY =             -0.06



1
 SUMMARY VOLUMETRIC BUDGET FOR GSFLOW 
 DATE: 01 13 1981              CUMULATIVE TIME STEP:     105
 MODFLOW STRESS PERIOD      2     CURRENT TIME STEP:     105     ITERATIONS:       7

 -----------------------------------------------------------------------------------

   CUMULATIVE VOLUMES               L**3   RATES FOR THIS TIME STEP           L**3/T
   ------------------                      ------------------------

                                     IN                                         IN
                                     --                                         --
        PRECIPITATION =        5004445.82          PRECIPITATION =                  
           STREAMFLOW =                               STREAMFLOW =                  
     GW BOUNDARY FLOW =                         GW BOUNDARY FLOW =                  


                                    OUT                                        OUT
                                    ---                                        ---
   EVAPOTRANSPIRATION =        2601176.10     EVAPOTRANSPIRATION =          44454.58
           STREAMFLOW =        1513511.75             STREAMFLOW =          20001.25
     GW BOUNDARY FLOW =          68216.62       GW BOUNDARY FLOW =            650.83

   INFLOWS - OUTFLOWS =         821541.35     INFLOWS - OUTFLOWS =         -65106.67
             --------                                   --------

 TOTAL STORAGE CHANGE =         827288.69         STORAGE CHANGE =         -65055.55
       --------------                             --------------
         LAND SURFACE =         626703.65           LAND SURFACE =         -38989.04
            SOIL ZONE =        2141702.27              SOIL ZONE =         -10386.56
     UNSATURATED ZONE =       -1493743.14       UNSATURATED ZONE =          -9175.78
       SATURATED ZONE =        -447374.11         SATURATED ZONE =          -6504.17

 OVERALL BUDGET ERROR =          -5747.34           BUDGET ERROR =            -51.12


  PERCENT DISCREPANCY =             -0.11    PERCENT DISCREPANCY =             -0.08



1
 SUMMARY VOLUMETRIC BUDGET FOR GSFLOW 
 DATE: 01 20 1981              CUMULATIVE TIME STEP:     112
 MODFLOW STRESS PERIOD      2     CURRENT TIME STEP:     112     ITERATIONS:       8

 -----------------------------------------------------------------------------------

   CUMULATIVE VOLUMES               L**3   RATES FOR THIS TIME STEP           L**3/T
   ------------------                      ------------------------

                                     IN                                         IN
                                     --                                         --
        PRECIPITATION =        5170468.48          PRECIPITATION =          41503.16
           STREAMFLOW =                               STREAMFLOW =                  
     GW BOUNDARY FLOW =                         GW BOUNDARY FLOW =                  


                                    OUT                                        OUT
                                    ---                                        ---
   EVAPOTRANSPIRATION =        2883445.88     EVAPOTRANSPIRATION =          35212.06
           STREAMFLOW =        1654794.05             STREAMFLOW =          20080.97
     GW BOUNDARY FLOW =          72771.41       GW BOUNDARY FLOW =            650.64

   INFLOWS - OUTFLOWS =         559457.15     INFLOWS - OUTFLOWS =         -14440.51
             --------                                   --------

 TOTAL STORAGE CHANGE =         565469.42         STORAGE CHANGE =         -14410.36
       --------------                             --------------
         LAND SURFACE =         436309.36           LAND SURFACE =           4324.83
            SOIL ZONE =        2147612.61              SOIL ZONE =         -10140.21
     UNSATURATED ZONE =       -1526456.19       UNSATURATED ZONE =          -1914.04
       SATURATED ZONE =        -491996.35         SATURATED ZONE =          -6680.94

 OVERALL BUDGET ERROR =          -6012.27           BUDGET ERROR =            -30.15


  PERCENT DISCREPANCY =             -0.12    PERCENT DISCREPANCY =             -0.05



1
 SUMMARY VOLUMETRIC BUDGET FOR GSFLOW 
 DATE: 01 27 1981              CUMULATIVE TIME STEP:     119
 MODFLOW STRESS PERIOD      2     CURRENT TIME STEP:     119     ITERATIONS:       9

 -----------------------------------------------------------------------------------

   CUMULATIVE VOLUMES               L**3   RATES FOR THIS TIME STEP           L**3/T
   ------------------                      ------------------------

                                     IN                                         IN
                                     --                                         --
        PRECIPITATION =        8646542.90          PRECIPITATION =        2936504.96
           STREAMFLOW =                               STREAMFLOW =                  
     GW BOUNDARY FLOW =                         GW BOUNDARY FLOW =                  


                                    OUT                                        OUT
                                    ---                                        ---
   EVAPOTRANSPIRATION =        3118014.07     EVAPOTRANSPIRATION =          13121.10
           STREAMFLOW =        1800163.72             STREAMFLOW =          18658.84
     GW BOUNDARY FLOW =          77325.74       GW BOUNDARY FLOW =            650.44

   INFLOWS - OUTFLOWS =        3651039.37     INFLOWS - OUTFLOWS =        2904074.59
             --------                                   --------

 TOTAL STORAGE CHANGE =        3657147.93         STORAGE CHANGE =        2904089.43
       --------------                             --------------
         LAND SURFACE =        3540208.68           LAND SURFACE =        2923350.57
            SOIL ZONE =        2170191.26              SOIL ZONE =          -7607.39
     UNSATURATED ZONE =       -1515789.43       UNSATURATED ZONE =          -4735.07
       SATURATED ZONE =        -537462.58         SATURATED ZONE =          -6918.68

 OVERALL BUDGET ERROR =          -6108.56           BUDGET ERROR =            -14.84


  PERCENT DISCREPANCY =             -0.07    PERCENT DISCREPANCY =             -0.00



1
 SUMMARY VOLUMETRIC BUDGET FOR GSFLOW 
 DATE: 02 03 1981              CUMULATIVE TIME STEP:     126
 MODFLOW STRESS PERIOD      2     CURRENT TIME STEP:     126     ITERATIONS:       9

 -----------------------------------------------------------------------------------

   CUMULATIVE VOLUMES               L**3   RATES FOR THIS TIME STEP           L**3/T
   ------------------                      ------------------------

                                     IN                                         IN
                                     --                                         --
        PRECIPITATION =        1.1739D+07          PRECIPITATION =                  
           STREAMFLOW =                               STREAMFLOW =                  
     GW BOUNDARY FLOW =                         GW BOUNDARY FLOW =                  


                                    OUT                                        OUT
                                    ---                                        ---
   EVAPOTRANSPIRATION =        3154526.96     EVAPOTRANSPIRATION =           6975.55
           STREAMFLOW =        1926693.96             STREAMFLOW =          17968.45
     GW BOUNDARY FLOW =          81877.83       GW BOUNDARY FLOW =            650.25

   INFLOWS - OUTFLOWS =        6575599.03     INFLOWS - OUTFLOWS =         -25594.25
             --------                                   --------

 TOTAL STORAGE CHANGE =        6581883.64         STORAGE CHANGE =         -25575.35
       --------------                             --------------
         LAND SURFACE =        6595850.64           LAND SURFACE =          -6975.55
            SOIL ZONE =        2159039.12              SOIL ZONE =            451.57
     UNSATURATED ZONE =       -1583673.72       UNSATURATED ZONE =         -11333.14
       SATURATED ZONE =        -589332.39         SATURATED ZONE =          -7718.22

 OVERALL BUDGET ERROR =          -6284.61           BUDGET ERROR =            -18.90


  PERCENT DISCREPANCY =             -0.05    PERCENT DISCREPANCY =             -0.07



1
 SUMMARY VOLUMETRIC BUDGET FOR GSFLOW 
 DATE: 02 10 1981              CUMULATIVE TIME STEP:     133
 MODFLOW STRESS PERIOD      2     CURRENT TIME STEP:     133     ITERATIONS:       7

 -----------------------------------------------------------------------------------

   CUMULATIVE VOLUMES               L**3   RATES FOR THIS TIME STEP           L**3/T
   ------------------                      ------------------------

                                     IN                                         IN
                                     --                                         --
        PRECIPITATION =        1.1838D+07          PRECIPITATION =                  
           STREAMFLOW =                               STREAMFLOW =                  
     GW BOUNDARY FLOW =                         GW BOUNDARY FLOW =                  


                                    OUT                                        OUT
                                    ---                                        ---
   EVAPOTRANSPIRATION =        3279928.20     EVAPOTRANSPIRATION =          32880.24
           STREAMFLOW =        2052738.50             STREAMFLOW =          18033.13
     GW BOUNDARY FLOW =          86429.57       GW BOUNDARY FLOW =            650.24

   INFLOWS - OUTFLOWS =        6419166.96     INFLOWS - OUTFLOWS =         -51563.61
             --------                                   --------

 TOTAL STORAGE CHANGE =        6425656.43         STORAGE CHANGE =         -51499.60
       --------------                             --------------
         LAND SURFACE =        6570014.86           LAND SURFACE =         -32880.24
            SOIL ZONE =        2163255.15              SOIL ZONE =            578.04
     UNSATURATED ZONE =       -1661812.66       UNSATURATED ZONE =         -10831.10
       SATURATED ZONE =        -645800.92         SATURATED ZONE =          -8366.31

 OVERALL BUDGET ERROR =          -6489.47           BUDGET ERROR =            -64.01


  PERCENT DISCREPANCY =             -0.05    PERCENT DISCREPANCY =             -0.12



1
 SUMMARY VOLUMETRIC BUDGET FOR GSFLOW 
 DATE: 02 17 1981              CUMULATIVE TIME STEP:     140
 MODFLOW STRESS PERIOD      2     CURRENT TIME STEP:     140     ITERATIONS:      14

 -----------------------------------------------------------------------------------

   CUMULATIVE VOLUMES               L**3   RATES FOR THIS TIME STEP           L**3/T
   ------------------                      ------------------------

                                     IN                                         IN
                                     --                                         --
        PRECIPITATION =        1.2765D+07          PRECIPITATION =          68928.68
           STREAMFLOW =                               STREAMFLOW =                  
     GW BOUNDARY FLOW =                         GW BOUNDARY FLOW =                  


                                    OUT                                        OUT
                                    ---                                        ---
   EVAPOTRANSPIRATION =        3618017.75     EVAPOTRANSPIRATION =          68604.82
           STREAMFLOW =        2593900.00             STREAMFLOW =         124817.39
     GW BOUNDARY FLOW =          91003.34       GW BOUNDARY FLOW =            656.82

   INFLOWS - OUTFLOWS =        6462059.57     INFLOWS - OUTFLOWS =        -125150.35
             --------                                   --------

 TOTAL STORAGE CHANGE =        6468770.69         STORAGE CHANGE =        -125146.01
       --------------                             --------------
         LAND SURFACE =        5590136.76           LAND SURFACE =        -278668.67
            SOIL ZONE =        2957730.64              SOIL ZONE =          72139.17
     UNSATURATED ZONE =       -1416862.45       UNSATURATED ZONE =          78941.75
       SATURATED ZONE =        -662234.26         SATURATED ZONE =           2441.74

 OVERALL BUDGET ERROR =          -6711.12           BUDGET ERROR =             -4.34


  PERCENT DISCREPANCY =             -0.05    PERCENT DISCREPANCY =             -0.00



1
 SUMMARY VOLUMETRIC BUDGET FOR GSFLOW 
 DATE: 02 24 1981              CUMULATIVE TIME STEP:     147
 MODFLOW STRESS PERIOD      2     CURRENT TIME STEP:     147     ITERATIONS:      14

 -----------------------------------------------------------------------------------

   CUMULATIVE VOLUMES               L**3   RATES FOR THIS TIME STEP           L**3/T
   ------------------                      ------------------------

                                     IN                                         IN
                                     --                                         --
        PRECIPITATION =        1.3179D+07          PRECIPITATION =         344647.71
           STREAMFLOW =                               STREAMFLOW =                  
     GW BOUNDARY FLOW =                         GW BOUNDARY FLOW =                  


                                    OUT                                        OUT
                                    ---                                        ---
   EVAPOTRANSPIRATION =        3959340.02     EVAPOTRANSPIRATION =          18832.86
           STREAMFLOW =        3151317.36             STREAMFLOW =          52020.66
     GW BOUNDARY FLOW =          95596.39       GW BOUNDARY FLOW =            655.14

   INFLOWS - OUTFLOWS =        5972304.68     INFLOWS - OUTFLOWS =         273139.05
             --------                                   --------

 TOTAL STORAGE CHANGE =        5978923.87         STORAGE CHANGE =         273128.71
       --------------                             --------------
         LAND SURFACE =        4984331.49           LAND SURFACE =         286391.24
            SOIL ZONE =        2697187.26              SOIL ZONE =         -43322.78
     UNSATURATED ZONE =       -1063816.78       UNSATURATED ZONE =          27645.67
       SATURATED ZONE =        -638778.09         SATURATED ZONE =           2414.58

 OVERALL BUDGET ERROR =          -6619.20           BUDGET ERROR =             10.34


  PERCENT DISCREPANCY =             -0.05    PERCENT DISCREPANCY =              0.00



1
 SUMMARY VOLUMETRIC BUDGET FOR GSFLOW 
 DATE: 03 03 1981              CUMULATIVE TIME STEP:     154
 MODFLOW STRESS PERIOD      2     CURRENT TIME STEP:     154     ITERATIONS:      11

 -----------------------------------------------------------------------------------

   CUMULATIVE VOLUMES               L**3   RATES FOR THIS TIME STEP           L**3/T
   ------------------                      ------------------------

                                     IN                                         IN
                                     --                                         --
        PRECIPITATION =        1.3447D+07          PRECIPITATION =                  
           STREAMFLOW =                               STREAMFLOW =                  
     GW BOUNDARY FLOW =                         GW BOUNDARY FLOW =                  


                                    OUT                                        OUT
                                    ---                                        ---
   EVAPOTRANSPIRATION =        4120021.62     EVAPOTRANSPIRATION =          45353.37
           STREAMFLOW =        3375123.00             STREAMFLOW =          27756.14
     GW BOUNDARY FLOW =         100169.28       GW BOUNDARY FLOW =            652.32

   INFLOWS - OUTFLOWS =        5851304.89     INFLOWS - OUTFLOWS =         -73761.83
             --------                                   --------

 TOTAL STORAGE CHANGE =        5857770.53         STORAGE CHANGE =         -73785.14
       --------------                             --------------
         LAND SURFACE =        5068234.93           LAND SURFACE =         -66032.10
            SOIL ZONE =        2489416.09              SOIL ZONE =           2841.51
     UNSATURATED ZONE =       -1056113.63       UNSATURATED ZONE =          -8520.86
       SATURATED ZONE =        -643766.86         SATURATED ZONE =          -2073.69

 OVERALL BUDGET ERROR =          -6465.65           BUDGET ERROR =             23.30


  PERCENT DISCREPANCY =             -0.05    PERCENT DISCREPANCY =              0.03



1
 SUMMARY VOLUMETRIC BUDGET FOR GSFLOW 
 DATE: 03 10 1981              CUMULATIVE TIME STEP:     161
 MODFLOW STRESS PERIOD      2     CURRENT TIME STEP:     161     ITERATIONS:      10

 -----------------------------------------------------------------------------------

   CUMULATIVE VOLUMES               L**3   RATES FOR THIS TIME STEP           L**3/T
   ------------------                      ------------------------

                                     IN                                         IN
                                     --                                         --
        PRECIPITATION =        1.3493D+07          PRECIPITATION =                  
           STREAMFLOW =                               STREAMFLOW =                  
     GW BOUNDARY FLOW =                         GW BOUNDARY FLOW =                  


                                    OUT                                        OUT
                                    ---                                        ---
   EVAPOTRANSPIRATION =        4465804.07     EVAPOTRANSPIRATION =          72809.14
           STREAMFLOW =        3611001.25             STREAMFLOW =          43637.53
     GW BOUNDARY FLOW =         104735.32       GW BOUNDARY FLOW =            652.93

   INFLOWS - OUTFLOWS =        5311413.87     INFLOWS - OUTFLOWS =        -117099.60
             --------                                   --------

 TOTAL STORAGE CHANGE =        5317747.98         STORAGE CHANGE =        -117127.11
       --------------                             --------------
         LAND SURFACE =        4391776.89           LAND SURFACE =        -169082.62
            SOIL ZONE =        2603413.98              SOIL ZONE =          28948.66
     UNSATURATED ZONE =       -1021637.25       UNSATURATED ZONE =          23451.27
       SATURATED ZONE =        -655805.64         SATURATED ZONE =           -444.42

 OVERALL BUDGET ERROR =          -6334.11           BUDGET ERROR =             27.51


  PERCENT DISCREPANCY =             -0.05    PERCENT DISCREPANCY =              0.02



1
 SUMMARY VOLUMETRIC BUDGET FOR GSFLOW 
 DATE: 03 17 1981              CUMULATIVE TIME STEP:     168
 MODFLOW STRESS PERIOD      2     CURRENT TIME STEP:     168     ITERATIONS:       9

 -----------------------------------------------------------------------------------

   CUMULATIVE VOLUMES               L**3   RATES FOR THIS TIME STEP           L**3/T
   ------------------                      ------------------------

                                     IN                                         IN
                                     --                                         --
        PRECIPITATION =        1.3745D+07          PRECIPITATION =                  
           STREAMFLOW =                               STREAMFLOW =                  
     GW BOUNDARY FLOW =                         GW BOUNDARY FLOW =                  


                                    OUT                                        OUT
                                    ---                                        ---
   EVAPOTRANSPIRATION =        4834208.80     EVAPOTRANSPIRATION =          40234.43
           STREAMFLOW =        3837945.61             STREAMFLOW =          24123.10
     GW BOUNDARY FLOW =         109302.60       GW BOUNDARY FLOW =            651.88

   INFLOWS - OUTFLOWS =        4963045.81     INFLOWS - OUTFLOWS =         -65009.41
             --------                                   --------

 TOTAL STORAGE CHANGE =        4969235.81         STORAGE CHANGE =         -65023.30
       --------------                             --------------
         LAND SURFACE =        4202562.94           LAND SURFACE =         -39897.20
            SOIL ZONE =        2437966.17              SOIL ZONE =          -5413.53
     UNSATURATED ZONE =        -999572.85       UNSATURATED ZONE =         -15648.62
       SATURATED ZONE =        -671720.46         SATURATED ZONE =          -4063.96

 OVERALL BUDGET ERROR =          -6190.00           BUDGET ERROR =             13.90


  PERCENT DISCREPANCY =             -0.05    PERCENT DISCREPANCY =              0.02



1
 SUMMARY VOLUMETRIC BUDGET FOR GSFLOW 
 DATE: 03 24 1981              CUMULATIVE TIME STEP:     175
 MODFLOW STRESS PERIOD      2     CURRENT TIME STEP:     175     ITERATIONS:       9

 -----------------------------------------------------------------------------------

   CUMULATIVE VOLUMES               L**3   RATES FOR THIS TIME STEP           L**3/T
   ------------------                      ------------------------

                                     IN                                         IN
                                     --                                         --
        PRECIPITATION =        1.4367D+07          PRECIPITATION =                  
           STREAMFLOW =                               STREAMFLOW =                  
     GW BOUNDARY FLOW =                         GW BOUNDARY FLOW =                  


                                    OUT                                        OUT
                                    ---                                        ---
   EVAPOTRANSPIRATION =        5189991.06     EVAPOTRANSPIRATION =          87430.63
           STREAMFLOW =        4013582.89             STREAMFLOW =          26789.07
     GW BOUNDARY FLOW =         113863.04       GW BOUNDARY FLOW =            651.45

   INFLOWS - OUTFLOWS =        5049319.25     INFLOWS - OUTFLOWS =        -114871.15
             --------                                   --------

 TOTAL STORAGE CHANGE =        5055480.49         STORAGE CHANGE =        -114875.00
       --------------                             --------------
         LAND SURFACE =        4477883.32           LAND SURFACE =         -65021.85
            SOIL ZONE =        2350759.65              SOIL ZONE =         -41066.75
     UNSATURATED ZONE =       -1068885.16       UNSATURATED ZONE =          -3959.97
       SATURATED ZONE =        -704277.31         SATURATED ZONE =          -4826.44

 OVERALL BUDGET ERROR =          -6161.24           BUDGET ERROR =              3.85


  PERCENT DISCREPANCY =             -0.04    PERCENT DISCREPANCY =              0.00



1
 SUMMARY VOLUMETRIC BUDGET FOR GSFLOW 
 DATE: 03 31 1981              CUMULATIVE TIME STEP:     182
 MODFLOW STRESS PERIOD      2     CURRENT TIME STEP:     182     ITERATIONS:      12

 -----------------------------------------------------------------------------------

   CUMULATIVE VOLUMES               L**3   RATES FOR THIS TIME STEP           L**3/T
   ------------------                      ------------------------

                                     IN                                         IN
                                     --                                         --
        PRECIPITATION =        1.5777D+07          PRECIPITATION =                  
           STREAMFLOW =                               STREAMFLOW =                  
     GW BOUNDARY FLOW =                         GW BOUNDARY FLOW =                  


                                    OUT                                        OUT
                                    ---                                        ---
   EVAPOTRANSPIRATION =        5619921.83     EVAPOTRANSPIRATION =          54089.89
           STREAMFLOW =        4522328.05             STREAMFLOW =          37100.80
     GW BOUNDARY FLOW =         118445.04       GW BOUNDARY FLOW =            653.60

   INFLOWS - OUTFLOWS =        5516071.27     INFLOWS - OUTFLOWS =         -91844.29
             --------                                   --------

 TOTAL STORAGE CHANGE =        5522114.64         STORAGE CHANGE =         -91867.79
       --------------                             --------------
         LAND SURFACE =        4494493.27           LAND SURFACE =         -55486.83
            SOIL ZONE =        2547197.69              SOIL ZONE =         -41725.74
     UNSATURATED ZONE =        -823521.48       UNSATURATED ZONE =           5909.08
       SATURATED ZONE =        -696054.84         SATURATED ZONE =           -564.29

 OVERALL BUDGET ERROR =          -6043.38           BUDGET ERROR =             23.49


  PERCENT DISCREPANCY =             -0.04    PERCENT DISCREPANCY =              0.03



1
 SUMMARY VOLUMETRIC BUDGET FOR GSFLOW 
 DATE: 04 07 1981              CUMULATIVE TIME STEP:     189
 MODFLOW STRESS PERIOD      2     CURRENT TIME STEP:     189     ITERATIONS:      10

 -----------------------------------------------------------------------------------

   CUMULATIVE VOLUMES               L**3   RATES FOR THIS TIME STEP           L**3/T
   ------------------                      ------------------------

                                     IN                                         IN
                                     --                                         --
        PRECIPITATION =        1.6121D+07          PRECIPITATION =                  
           STREAMFLOW =                               STREAMFLOW =                  
     GW BOUNDARY FLOW =                         GW BOUNDARY FLOW =                  


                                    OUT                                        OUT
                                    ---                                        ---
   EVAPOTRANSPIRATION =        6245985.96     EVAPOTRANSPIRATION =         103842.76
           STREAMFLOW =        4840610.05             STREAMFLOW =          43396.18
     GW BOUNDARY FLOW =         123020.34       GW BOUNDARY FLOW =            653.73

   INFLOWS - OUTFLOWS =        4911866.79     INFLOWS - OUTFLOWS =        -147892.68
             --------                                   --------

 TOTAL STORAGE CHANGE =        4917720.41         STORAGE CHANGE =        -147926.44
       --------------                             --------------
         LAND SURFACE =        3870392.79           LAND SURFACE =        -138669.71
            SOIL ZONE =        2478576.05              SOIL ZONE =         -20331.89
     UNSATURATED ZONE =        -739066.12       UNSATURATED ZONE =          10758.43
       SATURATED ZONE =        -692182.30         SATURATED ZONE =            316.73

 OVERALL BUDGET ERROR =          -5853.61           BUDGET ERROR =             33.76


  PERCENT DISCREPANCY =             -0.04    PERCENT DISCREPANCY =              0.02



1
 SUMMARY VOLUMETRIC BUDGET FOR GSFLOW 
 DATE: 04 14 1981              CUMULATIVE TIME STEP:     196
 MODFLOW STRESS PERIOD      2     CURRENT TIME STEP:     196     ITERATIONS:      13

 -----------------------------------------------------------------------------------

   CUMULATIVE VOLUMES               L**3   RATES FOR THIS TIME STEP           L**3/T
   ------------------                      ------------------------

                                     IN                                         IN
                                     --                                         --
        PRECIPITATION =        1.6121D+07          PRECIPITATION =                  
           STREAMFLOW =                               STREAMFLOW =                  
     GW BOUNDARY FLOW =                         GW BOUNDARY FLOW =                  


                                    OUT                                        OUT
                                    ---                                        ---
   EVAPOTRANSPIRATION =        7156675.70     EVAPOTRANSPIRATION =         191910.02
           STREAMFLOW =        5167738.98             STREAMFLOW =          55463.57
     GW BOUNDARY FLOW =         127595.72       GW BOUNDARY FLOW =            653.68

   INFLOWS - OUTFLOWS =        3669472.75     INFLOWS - OUTFLOWS =        -248027.27
             --------                                   --------

 TOTAL STORAGE CHANGE =        3675157.22         STORAGE CHANGE =        -248041.73
       --------------                             --------------
         LAND SURFACE =        2621639.65           LAND SURFACE =        -253015.87
            SOIL ZONE =        2387020.03              SOIL ZONE =         -16778.15
     UNSATURATED ZONE =        -647947.80       UNSATURATED ZONE =          19709.72
       SATURATED ZONE =        -685554.66         SATURATED ZONE =           2042.57

 OVERALL BUDGET ERROR =          -5684.47           BUDGET ERROR =             14.47


  PERCENT DISCREPANCY =             -0.04    PERCENT DISCREPANCY =              0.01



1
 SUMMARY VOLUMETRIC BUDGET FOR GSFLOW 
 DATE: 04 21 1981              CUMULATIVE TIME STEP:     203
 MODFLOW STRESS PERIOD      2     CURRENT TIME STEP:     203     ITERATIONS:      12

 -----------------------------------------------------------------------------------

   CUMULATIVE VOLUMES               L**3   RATES FOR THIS TIME STEP           L**3/T
   ------------------                      ------------------------

                                     IN                                         IN
                                     --                                         --
        PRECIPITATION =        1.6310D+07          PRECIPITATION =                  
           STREAMFLOW =                               STREAMFLOW =                  
     GW BOUNDARY FLOW =                         GW BOUNDARY FLOW =                  


                                    OUT                                        OUT
                                    ---                                        ---
   EVAPOTRANSPIRATION =        8228633.44     EVAPOTRANSPIRATION =         152247.13
           STREAMFLOW =        5506935.38             STREAMFLOW =          45789.13
     GW BOUNDARY FLOW =         132167.16       GW BOUNDARY FLOW =            652.63

   INFLOWS - OUTFLOWS =        2442521.42     INFLOWS - OUTFLOWS =        -198688.90
             --------                                   --------

 TOTAL STORAGE CHANGE =        2448024.76         STORAGE CHANGE =        -198724.70
       --------------                             --------------
         LAND SURFACE =        1441063.63           LAND SURFACE =        -121364.40
            SOIL ZONE =        2205068.95              SOIL ZONE =         -97328.23
     UNSATURATED ZONE =        -529459.38       UNSATURATED ZONE =          17089.46
       SATURATED ZONE =        -668648.43         SATURATED ZONE =           2878.47

 OVERALL BUDGET ERROR =          -5503.34           BUDGET ERROR =             35.80


  PERCENT DISCREPANCY =             -0.03    PERCENT DISCREPANCY =              0.02



1
 SUMMARY VOLUMETRIC BUDGET FOR GSFLOW 
 DATE: 04 28 1981              CUMULATIVE TIME STEP:     210
 MODFLOW STRESS PERIOD      2     CURRENT TIME STEP:     210     ITERATIONS:      14

 -----------------------------------------------------------------------------------

   CUMULATIVE VOLUMES               L**3   RATES FOR THIS TIME STEP           L**3/T
   ------------------                      ------------------------

                                     IN                                         IN
                                     --                                         --
        PRECIPITATION =        1.6515D+07          PRECIPITATION =                  
           STREAMFLOW =                               STREAMFLOW =                  
     GW BOUNDARY FLOW =                         GW BOUNDARY FLOW =                  


                                    OUT                                        OUT
                                    ---                                        ---
   EVAPOTRANSPIRATION =        9467122.50     EVAPOTRANSPIRATION =         200399.01
           STREAMFLOW =        5719020.75             STREAMFLOW =          24667.77
     GW BOUNDARY FLOW =         136726.65       GW BOUNDARY FLOW =            650.47

   INFLOWS - OUTFLOWS =        1192577.05     INFLOWS - OUTFLOWS =        -225717.26
             --------                                   --------

 TOTAL STORAGE CHANGE =        1197919.35         STORAGE CHANGE =        -225743.75
       --------------                             --------------
         LAND SURFACE =         691620.74           LAND SURFACE =         -83515.73
            SOIL ZONE =        1694973.49              SOIL ZONE =        -138423.82
     UNSATURATED ZONE =        -527482.63       UNSATURATED ZONE =          -4086.41
       SATURATED ZONE =        -661192.25         SATURATED ZONE =            282.22

 OVERALL BUDGET ERROR =          -5342.31           BUDGET ERROR =             26.49


  PERCENT DISCREPANCY =             -0.03    PERCENT DISCREPANCY =              0.01



1
 SUMMARY VOLUMETRIC BUDGET FOR GSFLOW 
 DATE: 05 05 1981              CUMULATIVE TIME STEP:     217
 MODFLOW STRESS PERIOD      2     CURRENT TIME STEP:     217     ITERATIONS:      13

 -----------------------------------------------------------------------------------

   CUMULATIVE VOLUMES               L**3   RATES FOR THIS TIME STEP           L**3/T
   ------------------                      ------------------------

                                     IN                                         IN
                                     --                                         --
        PRECIPITATION =        1.6515D+07          PRECIPITATION =                  
           STREAMFLOW =                               STREAMFLOW =                  
     GW BOUNDARY FLOW =                         GW BOUNDARY FLOW =                  


                                    OUT                                        OUT
                                    ---                                        ---
   EVAPOTRANSPIRATION =        1.0354D+07     EVAPOTRANSPIRATION =          52071.83
           STREAMFLOW =        5823965.18             STREAMFLOW =          10603.49
     GW BOUNDARY FLOW =         141272.98       GW BOUNDARY FLOW =            648.78

   INFLOWS - OUTFLOWS =         196201.59     INFLOWS - OUTFLOWS =         -63324.10
             --------                                   --------

 TOTAL STORAGE CHANGE =         201424.23         STORAGE CHANGE =         -63337.54
       --------------                             --------------
         LAND SURFACE =         347403.61           LAND SURFACE =         -17503.36
            SOIL ZONE =        1153506.89              SOIL ZONE =         -26297.70
     UNSATURATED ZONE =        -624868.52       UNSATURATED ZONE =         -16446.73
       SATURATED ZONE =        -674617.75         SATURATED ZONE =          -3089.75

 OVERALL BUDGET ERROR =          -5222.64           BUDGET ERROR =             13.44


  PERCENT DISCREPANCY =             -0.03    PERCENT DISCREPANCY =              0.02



1
 SUMMARY VOLUMETRIC BUDGET FOR GSFLOW 
 DATE: 05 12 1981              CUMULATIVE TIME STEP:     224
 MODFLOW STRESS PERIOD      2     CURRENT TIME STEP:     224     ITERATIONS:      15

 -----------------------------------------------------------------------------------

   CUMULATIVE VOLUMES               L**3   RATES FOR THIS TIME STEP           L**3/T
   ------------------                      ------------------------

                                     IN                                         IN
                                     --                                         --
        PRECIPITATION =        1.6515D+07          PRECIPITATION =                  
           STREAMFLOW =                               STREAMFLOW =                  
     GW BOUNDARY FLOW =                         GW BOUNDARY FLOW =                  


                                    OUT                                        OUT
                                    ---                                        ---
   EVAPOTRANSPIRATION =        1.0874D+07     EVAPOTRANSPIRATION =          91407.21
           STREAMFLOW =        5893015.77             STREAMFLOW =          10122.36
     GW BOUNDARY FLOW =         145811.41       GW BOUNDARY FLOW =            648.17

   INFLOWS - OUTFLOWS =        -397770.32     INFLOWS - OUTFLOWS =        -102177.74
             --------                                   --------

 TOTAL STORAGE CHANGE =        -392596.80         STORAGE CHANGE =        -102184.21
       --------------                             --------------
         LAND SURFACE =         198720.96           LAND SURFACE =         -25499.91
            SOIL ZONE =         845404.06              SOIL ZONE =         -57520.04
     UNSATURATED ZONE =        -732115.36       UNSATURATED ZONE =         -13708.74
       SATURATED ZONE =        -704606.47         SATURATED ZONE =          -5455.52

 OVERALL BUDGET ERROR =          -5173.52           BUDGET ERROR =              6.46


  PERCENT DISCREPANCY =             -0.03    PERCENT DISCREPANCY =              0.01



1
 SUMMARY VOLUMETRIC BUDGET FOR GSFLOW 
 DATE: 05 19 1981              CUMULATIVE TIME STEP:     231
 MODFLOW STRESS PERIOD      2     CURRENT TIME STEP:     231     ITERATIONS:      15

 -----------------------------------------------------------------------------------

   CUMULATIVE VOLUMES               L**3   RATES FOR THIS TIME STEP           L**3/T
   ------------------                      ------------------------

                                     IN                                         IN
                                     --                                         --
        PRECIPITATION =        1.7837D+07          PRECIPITATION =         169047.83
           STREAMFLOW =                               STREAMFLOW =                  
     GW BOUNDARY FLOW =                         GW BOUNDARY FLOW =                  


                                    OUT                                        OUT
                                    ---                                        ---
   EVAPOTRANSPIRATION =        1.1232D+07     EVAPOTRANSPIRATION =          35342.78
           STREAMFLOW =        6017546.98             STREAMFLOW =          25673.12
     GW BOUNDARY FLOW =         150350.44       GW BOUNDARY FLOW =            649.44

   INFLOWS - OUTFLOWS =         436919.80     INFLOWS - OUTFLOWS =         107382.49
             --------                                   --------

 TOTAL STORAGE CHANGE =         442038.96         STORAGE CHANGE =         107375.53
       --------------                             --------------
         LAND SURFACE =         167126.54           LAND SURFACE =           4530.43
            SOIL ZONE =        1824302.62              SOIL ZONE =         110364.79
     UNSATURATED ZONE =        -804732.68       UNSATURATED ZONE =          -1977.10
       SATURATED ZONE =        -744657.52         SATURATED ZONE =          -5542.59

 OVERALL BUDGET ERROR =          -5119.16           BUDGET ERROR =              6.96


  PERCENT DISCREPANCY =             -0.03    PERCENT DISCREPANCY =              0.00



1
 SUMMARY VOLUMETRIC BUDGET FOR GSFLOW 
 DATE: 05 26 1981              CUMULATIVE TIME STEP:     238
 MODFLOW STRESS PERIOD      2     CURRENT TIME STEP:     238     ITERATIONS:      12

 -----------------------------------------------------------------------------------

   CUMULATIVE VOLUMES               L**3   RATES FOR THIS TIME STEP           L**3/T
   ------------------                      ------------------------

                                     IN                                         IN
                                     --                                         --
        PRECIPITATION =        1.8252D+07          PRECIPITATION =         284301.98
           STREAMFLOW =                               STREAMFLOW =                  
     GW BOUNDARY FLOW =                         GW BOUNDARY FLOW =                  


                                    OUT                                        OUT
                                    ---                                        ---
   EVAPOTRANSPIRATION =        1.2124D+07     EVAPOTRANSPIRATION =         143847.36
           STREAMFLOW =        6123929.47             STREAMFLOW =          18213.23
     GW BOUNDARY FLOW =         154891.08       GW BOUNDARY FLOW =            648.42

   INFLOWS - OUTFLOWS =        -150841.91     INFLOWS - OUTFLOWS =         121592.97
             --------                                   --------

 TOTAL STORAGE CHANGE =        -145769.39         STORAGE CHANGE =         121585.29
       --------------                             --------------
         LAND SURFACE =          96901.93           LAND SURFACE =          -7055.53
            SOIL ZONE =        1416529.43              SOIL ZONE =         146522.05
     UNSATURATED ZONE =        -865964.26       UNSATURATED ZONE =         -10988.50
       SATURATED ZONE =        -793236.50         SATURATED ZONE =          -6892.73

 OVERALL BUDGET ERROR =          -5072.53           BUDGET ERROR =              7.68


  PERCENT DISCREPANCY =             -0.03    PERCENT DISCREPANCY =              0.00



1
 SUMMARY VOLUMETRIC BUDGET FOR GSFLOW 
 DATE: 06 02 1981              CUMULATIVE TIME STEP:     245
 MODFLOW STRESS PERIOD      2     CURRENT TIME STEP:     245     ITERATIONS:      14

 -----------------------------------------------------------------------------------

   CUMULATIVE VOLUMES               L**3   RATES FOR THIS TIME STEP           L**3/T
   ------------------                      ------------------------

                                     IN                                         IN
                                     --                                         --
        PRECIPITATION =        1.8318D+07          PRECIPITATION =          50867.39
           STREAMFLOW =                               STREAMFLOW =                  
     GW BOUNDARY FLOW =                         GW BOUNDARY FLOW =                  


                                    OUT                                        OUT
                                    ---                                        ---
   EVAPOTRANSPIRATION =        1.2927D+07     EVAPOTRANSPIRATION =          64990.77
           STREAMFLOW =        6190168.00             STREAMFLOW =           7479.39
     GW BOUNDARY FLOW =         159425.72       GW BOUNDARY FLOW =            647.38

   INFLOWS - OUTFLOWS =        -957989.24     INFLOWS - OUTFLOWS =         -22250.15
             --------                                   --------

 TOTAL STORAGE CHANGE =        -952953.78         STORAGE CHANGE =         -22252.91
       --------------                             --------------
         LAND SURFACE =          61824.55           LAND SURFACE =          30829.61
            SOIL ZONE =         790770.10              SOIL ZONE =         -30854.00
     UNSATURATED ZONE =        -954472.64       UNSATURATED ZONE =         -13643.56
       SATURATED ZONE =        -851075.79         SATURATED ZONE =          -8584.96

 OVERALL BUDGET ERROR =          -5035.46           BUDGET ERROR =              2.77


  PERCENT DISCREPANCY =             -0.03    PERCENT DISCREPANCY =              0.00



1
 SUMMARY VOLUMETRIC BUDGET FOR GSFLOW 
 DATE: 06 09 1981              CUMULATIVE TIME STEP:     252
 MODFLOW STRESS PERIOD      2     CURRENT TIME STEP:     252     ITERATIONS:      13

 -----------------------------------------------------------------------------------

   CUMULATIVE VOLUMES               L**3   RATES FOR THIS TIME STEP           L**3/T
   ------------------                      ------------------------

                                     IN                                         IN
                                     --                                         --
        PRECIPITATION =        1.8318D+07          PRECIPITATION =                  
           STREAMFLOW =                               STREAMFLOW =                  
     GW BOUNDARY FLOW =                         GW BOUNDARY FLOW =                  


                                    OUT                                        OUT
                                    ---                                        ---
   EVAPOTRANSPIRATION =        1.3394D+07     EVAPOTRANSPIRATION =          48545.16
           STREAMFLOW =        6236865.58             STREAMFLOW =           6324.33
     GW BOUNDARY FLOW =         163955.38       GW BOUNDARY FLOW =            646.94

   INFLOWS - OUTFLOWS =       -1476906.52     INFLOWS - OUTFLOWS =         -55516.43
             --------                                   --------

 TOTAL STORAGE CHANGE =       -1471889.42         STORAGE CHANGE =         -55519.18
       --------------                             --------------
         LAND SURFACE =           8254.44           LAND SURFACE =          -1595.45
            SOIL ZONE =         480978.87              SOIL ZONE =         -31742.15
     UNSATURATED ZONE =       -1047624.53       UNSATURATED ZONE =         -13063.93
       SATURATED ZONE =        -913498.20         SATURATED ZONE =          -9117.65

 OVERALL BUDGET ERROR =          -5017.10           BUDGET ERROR =              2.75


  PERCENT DISCREPANCY =             -0.03    PERCENT DISCREPANCY =              0.00



1
 SUMMARY VOLUMETRIC BUDGET FOR GSFLOW 
 DATE: 06 16 1981              CUMULATIVE TIME STEP:     259
 MODFLOW STRESS PERIOD      2     CURRENT TIME STEP:     259     ITERATIONS:      12

 -----------------------------------------------------------------------------------

   CUMULATIVE VOLUMES               L**3   RATES FOR THIS TIME STEP           L**3/T
   ------------------                      ------------------------

                                     IN                                         IN
                                     --                                         --
        PRECIPITATION =        1.8318D+07          PRECIPITATION =                  
           STREAMFLOW =                               STREAMFLOW =                  
     GW BOUNDARY FLOW =                         GW BOUNDARY FLOW =                  


                                    OUT                                        OUT
                                    ---                                        ---
   EVAPOTRANSPIRATION =        1.3579D+07     EVAPOTRANSPIRATION =          43990.71
           STREAMFLOW =        6280110.61             STREAMFLOW =           6114.78
     GW BOUNDARY FLOW =         168483.06       GW BOUNDARY FLOW =            646.73

   INFLOWS - OUTFLOWS =       -1708944.76     INFLOWS - OUTFLOWS =         -50752.22
             --------                                   --------

 TOTAL STORAGE CHANGE =       -1703958.20         STORAGE CHANGE =         -50758.01
       --------------                             --------------
         LAND SURFACE =           3426.51           LAND SURFACE =           -943.67
            SOIL ZONE =         407715.86              SOIL ZONE =         -27945.45
     UNSATURATED ZONE =       -1136701.32       UNSATURATED ZONE =         -12436.17
       SATURATED ZONE =        -978399.24         SATURATED ZONE =          -9432.72

 OVERALL BUDGET ERROR =          -4986.56           BUDGET ERROR =              5.79


  PERCENT DISCREPANCY =             -0.02    PERCENT DISCREPANCY =              0.01



1
 SUMMARY VOLUMETRIC BUDGET FOR GSFLOW 
 DATE: 06 23 1981              CUMULATIVE TIME STEP:     266
 MODFLOW STRESS PERIOD      2     CURRENT TIME STEP:     266     ITERATIONS:      14

 -----------------------------------------------------------------------------------

   CUMULATIVE VOLUMES               L**3   RATES FOR THIS TIME STEP           L**3/T
   ------------------                      ------------------------

                                     IN                                         IN
                                     --                                         --
        PRECIPITATION =        1.8318D+07          PRECIPITATION =                  
           STREAMFLOW =                               STREAMFLOW =                  
     GW BOUNDARY FLOW =                         GW BOUNDARY FLOW =                  


                                    OUT                                        OUT
                                    ---                                        ---
   EVAPOTRANSPIRATION =        1.3857D+07     EVAPOTRANSPIRATION =          33005.58
           STREAMFLOW =        6322079.10             STREAMFLOW =           5933.58
     GW BOUNDARY FLOW =         173009.51       GW BOUNDARY FLOW =            646.56

   INFLOWS - OUTFLOWS =       -2033737.92     INFLOWS - OUTFLOWS =         -39585.72
             --------                                   --------

 TOTAL STORAGE CHANGE =       -2028787.02         STORAGE CHANGE =         -39589.36
       --------------                             --------------
         LAND SURFACE =                             LAND SURFACE =                  
            SOIL ZONE =         238233.08              SOIL ZONE =         -18006.70
     UNSATURATED ZONE =       -1221520.90       UNSATURATED ZONE =         -11730.10
       SATURATED ZONE =       -1045499.20         SATURATED ZONE =          -9852.55

 OVERALL BUDGET ERROR =          -4950.91           BUDGET ERROR =              3.64


  PERCENT DISCREPANCY =             -0.02    PERCENT DISCREPANCY =              0.01



1
 SUMMARY VOLUMETRIC BUDGET FOR GSFLOW 
 DATE: 06 30 1981              CUMULATIVE TIME STEP:     273
 MODFLOW STRESS PERIOD      2     CURRENT TIME STEP:     273     ITERATIONS:       9

 -----------------------------------------------------------------------------------

   CUMULATIVE VOLUMES               L**3   RATES FOR THIS TIME STEP           L**3/T
   ------------------                      ------------------------

                                     IN                                         IN
[...]
     GW BOUNDARY FLOW =        3735622.02       GW BOUNDARY FLOW =            650.70

   INFLOWS - OUTFLOWS =       -7932610.71     INFLOWS - OUTFLOWS =         -48720.38
             --------                                   --------

 TOTAL STORAGE CHANGE =       -7877755.00         STORAGE CHANGE =         -48745.81
       --------------                             --------------
         LAND SURFACE =          84521.88           LAND SURFACE =          -4963.73
            SOIL ZONE =         221356.74              SOIL ZONE =         -22483.87
     UNSATURATED ZONE =        5304205.45       UNSATURATED ZONE =         -27511.70
       SATURATED ZONE =       -1.3488D+07         SATURATED ZONE =           6213.49

 OVERALL BUDGET ERROR =         -54855.71           BUDGET ERROR =             25.43


  PERCENT DISCREPANCY =             -0.01    PERCENT DISCREPANCY =              0.05



1
 SUMMARY VOLUMETRIC BUDGET FOR GSFLOW 
 DATE: 07 30 1996              CUMULATIVE TIME STEP:    5782
 MODFLOW STRESS PERIOD      2     CURRENT TIME STEP:    5782     ITERATIONS:      14

 -----------------------------------------------------------------------------------

   CUMULATIVE VOLUMES               L**3   RATES FOR THIS TIME STEP           L**3/T
   ------------------                      ------------------------

                                     IN                                         IN
                                     --                                         --
        PRECIPITATION =        4.6511D+08          PRECIPITATION =                  
           STREAMFLOW =                               STREAMFLOW =                  
     GW BOUNDARY FLOW =                         GW BOUNDARY FLOW =                  


                                    OUT                                        OUT
                                    ---                                        ---
   EVAPOTRANSPIRATION =        2.8895D+08     EVAPOTRANSPIRATION =          25374.07
           STREAMFLOW =        1.8060D+08             STREAMFLOW =           6739.57
     GW BOUNDARY FLOW =        3740175.34       GW BOUNDARY FLOW =            650.28

   INFLOWS - OUTFLOWS =       -8189032.62     INFLOWS - OUTFLOWS =         -32763.92
             --------                                   --------

 TOTAL STORAGE CHANGE =       -8134326.12         STORAGE CHANGE =         -32794.71
       --------------                             --------------
         LAND SURFACE =          55427.08           LAND SURFACE =          -3488.58
            SOIL ZONE =         141565.63              SOIL ZONE =          -8333.10
     UNSATURATED ZONE =        5116683.23       UNSATURATED ZONE =         -26305.43
       SATURATED ZONE =       -1.3448D+07         SATURATED ZONE =           5332.39

 OVERALL BUDGET ERROR =         -54706.50           BUDGET ERROR =             30.79


  PERCENT DISCREPANCY =             -0.01    PERCENT DISCREPANCY =              0.09



1
 SUMMARY VOLUMETRIC BUDGET FOR GSFLOW 
 DATE: 08 06 1996              CUMULATIVE TIME STEP:    5789
 MODFLOW STRESS PERIOD      2     CURRENT TIME STEP:    5789     ITERATIONS:      13

 -----------------------------------------------------------------------------------

   CUMULATIVE VOLUMES               L**3   RATES FOR THIS TIME STEP           L**3/T
   ------------------                      ------------------------

                                     IN                                         IN
                                     --                                         --
        PRECIPITATION =        4.6511D+08          PRECIPITATION =                  
           STREAMFLOW =                               STREAMFLOW =                  
     GW BOUNDARY FLOW =                         GW BOUNDARY FLOW =                  


                                    OUT                                        OUT
                                    ---                                        ---
   EVAPOTRANSPIRATION =        2.8909D+08     EVAPOTRANSPIRATION =          18604.19
           STREAMFLOW =        1.8065D+08             STREAMFLOW =           6538.87
     GW BOUNDARY FLOW =        3744725.54       GW BOUNDARY FLOW =            649.91

   INFLOWS - OUTFLOWS =       -8375891.17     INFLOWS - OUTFLOWS =         -25792.97
             --------                                   --------

 TOTAL STORAGE CHANGE =       -8321377.24         STORAGE CHANGE =         -25822.17
       --------------                             --------------
         LAND SURFACE =          37080.10           LAND SURFACE =          -2254.04
            SOIL ZONE =         118458.48              SOIL ZONE =          -2891.25
     UNSATURATED ZONE =        4935071.44       UNSATURATED ZONE =         -25448.31
       SATURATED ZONE =       -1.3412D+07         SATURATED ZONE =           4771.43

 OVERALL BUDGET ERROR =         -54513.93           BUDGET ERROR =             29.19


  PERCENT DISCREPANCY =             -0.01    PERCENT DISCREPANCY =              0.11



1
 SUMMARY VOLUMETRIC BUDGET FOR GSFLOW 
 DATE: 08 13 1996              CUMULATIVE TIME STEP:    5796
 MODFLOW STRESS PERIOD      2     CURRENT TIME STEP:    5796     ITERATIONS:      14

 -----------------------------------------------------------------------------------

   CUMULATIVE VOLUMES               L**3   RATES FOR THIS TIME STEP           L**3/T
   ------------------                      ------------------------

                                     IN                                         IN
                                     --                                         --
        PRECIPITATION =        4.6531D+08          PRECIPITATION =          54456.73
           STREAMFLOW =                               STREAMFLOW =                  
     GW BOUNDARY FLOW =                         GW BOUNDARY FLOW =                  


                                    OUT                                        OUT
                                    ---                                        ---
   EVAPOTRANSPIRATION =        2.8926D+08     EVAPOTRANSPIRATION =          33539.33
           STREAMFLOW =        1.8070D+08             STREAMFLOW =           7738.39
     GW BOUNDARY FLOW =        3749274.82       GW BOUNDARY FLOW =            649.95

   INFLOWS - OUTFLOWS =       -8399512.89     INFLOWS - OUTFLOWS =          12529.06
             --------                                   --------

 TOTAL STORAGE CHANGE =       -8345154.94         STORAGE CHANGE =          12509.49
       --------------                             --------------
         LAND SURFACE =          53177.14           LAND SURFACE =          -2312.81
            SOIL ZONE =         221804.69              SOIL ZONE =          35090.81
     UNSATURATED ZONE =        4761697.64       UNSATURATED ZONE =         -24148.35
       SATURATED ZONE =       -1.3382D+07         SATURATED ZONE =           3879.84

 OVERALL BUDGET ERROR =         -54357.95           BUDGET ERROR =             19.58


  PERCENT DISCREPANCY =             -0.01    PERCENT DISCREPANCY =              0.04



1
 SUMMARY VOLUMETRIC BUDGET FOR GSFLOW 
 DATE: 08 20 1996              CUMULATIVE TIME STEP:    5803
 MODFLOW STRESS PERIOD      2     CURRENT TIME STEP:    5803     ITERATIONS:      13

 -----------------------------------------------------------------------------------

   CUMULATIVE VOLUMES               L**3   RATES FOR THIS TIME STEP           L**3/T
   ------------------                      ------------------------

                                     IN                                         IN
                                     --                                         --
        PRECIPITATION =        4.6531D+08          PRECIPITATION =                  
           STREAMFLOW =                               STREAMFLOW =                  
     GW BOUNDARY FLOW =                         GW BOUNDARY FLOW =                  


                                    OUT                                        OUT
                                    ---                                        ---
   EVAPOTRANSPIRATION =        2.8946D+08     EVAPOTRANSPIRATION =          16671.64
           STREAMFLOW =        1.8075D+08             STREAMFLOW =           6347.30
     GW BOUNDARY FLOW =        3753823.04       GW BOUNDARY FLOW =            649.60

   INFLOWS - OUTFLOWS =       -8647565.13     INFLOWS - OUTFLOWS =         -23668.53
             --------                                   --------

 TOTAL STORAGE CHANGE =       -8593384.07         STORAGE CHANGE =         -23697.72
       --------------                             --------------
         LAND SURFACE =           6933.74           LAND SURFACE =          -1297.55
            SOIL ZONE =         161640.30              SOIL ZONE =          -2240.66
     UNSATURATED ZONE =        4597037.74       UNSATURATED ZONE =         -23081.13
       SATURATED ZONE =       -1.3359D+07         SATURATED ZONE =           2921.62

 OVERALL BUDGET ERROR =         -54181.06           BUDGET ERROR =             29.18


  PERCENT DISCREPANCY =             -0.01    PERCENT DISCREPANCY =              0.12



1
 SUMMARY VOLUMETRIC BUDGET FOR GSFLOW 
 DATE: 08 27 1996              CUMULATIVE TIME STEP:    5810
 MODFLOW STRESS PERIOD      2     CURRENT TIME STEP:    5810     ITERATIONS:      13

 -----------------------------------------------------------------------------------

   CUMULATIVE VOLUMES               L**3   RATES FOR THIS TIME STEP           L**3/T
   ------------------                      ------------------------

                                     IN                                         IN
                                     --                                         --
        PRECIPITATION =        4.6531D+08          PRECIPITATION =                  
           STREAMFLOW =                               STREAMFLOW =                  
     GW BOUNDARY FLOW =                         GW BOUNDARY FLOW =                  


                                    OUT                                        OUT
                                    ---                                        ---
   EVAPOTRANSPIRATION =        2.8960D+08     EVAPOTRANSPIRATION =          15151.93
           STREAMFLOW =        1.8079D+08             STREAMFLOW =           6188.65
     GW BOUNDARY FLOW =        3758368.89       GW BOUNDARY FLOW =            649.26

   INFLOWS - OUTFLOWS =       -8831614.99     INFLOWS - OUTFLOWS =         -21989.84
             --------                                   --------

 TOTAL STORAGE CHANGE =       -8777599.09         STORAGE CHANGE =         -22013.71
       --------------                             --------------
         LAND SURFACE =           1244.67           LAND SURFACE =           -272.67
            SOIL ZONE =         123220.19              SOIL ZONE =          -1826.89
     UNSATURATED ZONE =        4440642.28       UNSATURATED ZONE =         -21991.86
       SATURATED ZONE =       -1.3343D+07         SATURATED ZONE =           2077.71

 OVERALL BUDGET ERROR =         -54015.90           BUDGET ERROR =             23.87


  PERCENT DISCREPANCY =             -0.01    PERCENT DISCREPANCY =              0.11



1
 SUMMARY VOLUMETRIC BUDGET FOR GSFLOW 
 DATE: 09 03 1996              CUMULATIVE TIME STEP:    5817
 MODFLOW STRESS PERIOD      2     CURRENT TIME STEP:    5817     ITERATIONS:      12

 -----------------------------------------------------------------------------------

   CUMULATIVE VOLUMES               L**3   RATES FOR THIS TIME STEP           L**3/T
   ------------------                      ------------------------

                                     IN                                         IN
                                     --                                         --
        PRECIPITATION =        4.6531D+08          PRECIPITATION =                  
           STREAMFLOW =                               STREAMFLOW =                  
     GW BOUNDARY FLOW =                         GW BOUNDARY FLOW =                  


                                    OUT                                        OUT
                                    ---                                        ---
   EVAPOTRANSPIRATION =        2.8970D+08     EVAPOTRANSPIRATION =          12343.26
           STREAMFLOW =        1.8083D+08             STREAMFLOW =           6088.71
     GW BOUNDARY FLOW =        3762912.23       GW BOUNDARY FLOW =            648.88

   INFLOWS - OUTFLOWS =       -8980658.01     INFLOWS - OUTFLOWS =         -19080.85
             --------                                   --------

 TOTAL STORAGE CHANGE =       -8926880.00         STORAGE CHANGE =         -19113.92
       --------------                             --------------
         LAND SURFACE =            584.39           LAND SURFACE =            -75.06
            SOIL ZONE =         113164.46              SOIL ZONE =            660.36
     UNSATURATED ZONE =        4290509.34       UNSATURATED ZONE =         -21141.84
       SATURATED ZONE =       -1.3331D+07         SATURATED ZONE =           1442.62

 OVERALL BUDGET ERROR =         -53778.01           BUDGET ERROR =             33.07


  PERCENT DISCREPANCY =             -0.01    PERCENT DISCREPANCY =              0.17



1
 SUMMARY VOLUMETRIC BUDGET FOR GSFLOW 
 DATE: 09 10 1996              CUMULATIVE TIME STEP:    5824
 MODFLOW STRESS PERIOD      2     CURRENT TIME STEP:    5824     ITERATIONS:      12

 -----------------------------------------------------------------------------------

   CUMULATIVE VOLUMES               L**3   RATES FOR THIS TIME STEP           L**3/T
   ------------------                      ------------------------

                                     IN                                         IN
                                     --                                         --
        PRECIPITATION =        4.6531D+08          PRECIPITATION =                  
           STREAMFLOW =                               STREAMFLOW =                  
     GW BOUNDARY FLOW =                         GW BOUNDARY FLOW =                  


                                    OUT                                        OUT
                                    ---                                        ---
   EVAPOTRANSPIRATION =        2.8978D+08     EVAPOTRANSPIRATION =          13669.38
           STREAMFLOW =        1.8087D+08             STREAMFLOW =           5997.37
     GW BOUNDARY FLOW =        3767452.97       GW BOUNDARY FLOW =            648.52

   INFLOWS - OUTFLOWS =       -9110171.42     INFLOWS - OUTFLOWS =         -20315.26
             --------                                   --------

 TOTAL STORAGE CHANGE =       -9056631.28         STORAGE CHANGE =         -20348.84
       --------------                             --------------
         LAND SURFACE =            141.92           LAND SURFACE =            -69.29
            SOIL ZONE =         120896.13              SOIL ZONE =           -794.04
     UNSATURATED ZONE =        4142941.59       UNSATURATED ZONE =         -20902.83
       SATURATED ZONE =       -1.3321D+07         SATURATED ZONE =           1417.32

 OVERALL BUDGET ERROR =         -53540.14           BUDGET ERROR =             33.57


  PERCENT DISCREPANCY =             -0.01    PERCENT DISCREPANCY =              0.17



1
 SUMMARY VOLUMETRIC BUDGET FOR GSFLOW 
 DATE: 09 17 1996              CUMULATIVE TIME STEP:    5831
 MODFLOW STRESS PERIOD      2     CURRENT TIME STEP:    5831     ITERATIONS:      11

 -----------------------------------------------------------------------------------

   CUMULATIVE VOLUMES               L**3   RATES FOR THIS TIME STEP           L**3/T
   ------------------                      ------------------------

                                     IN                                         IN
                                     --                                         --
        PRECIPITATION =        4.6637D+08          PRECIPITATION =                  
           STREAMFLOW =                               STREAMFLOW =                  
     GW BOUNDARY FLOW =                         GW BOUNDARY FLOW =                  


                                    OUT                                        OUT
                                    ---                                        ---
   EVAPOTRANSPIRATION =        2.8997D+08     EVAPOTRANSPIRATION =          63860.91
           STREAMFLOW =        1.8094D+08             STREAMFLOW =          10044.08
     GW BOUNDARY FLOW =        3771993.05       GW BOUNDARY FLOW =            648.92

   INFLOWS - OUTFLOWS =       -8311844.47     INFLOWS - OUTFLOWS =         -74553.92
             --------                                   --------

 TOTAL STORAGE CHANGE =       -8258579.50         STORAGE CHANGE =         -74603.06
       --------------                             --------------
         LAND SURFACE =           2829.02           LAND SURFACE =         -35615.32
            SOIL ZONE =        1049664.04              SOIL ZONE =         -19687.45
     UNSATURATED ZONE =        4000748.40       UNSATURATED ZONE =         -19899.37
       SATURATED ZONE =       -1.3312D+07         SATURATED ZONE =            599.08

 OVERALL BUDGET ERROR =         -53264.97           BUDGET ERROR =             49.14


  PERCENT DISCREPANCY =             -0.01    PERCENT DISCREPANCY =              0.07



1
 SUMMARY VOLUMETRIC BUDGET FOR GSFLOW 
 DATE: 09 24 1996              CUMULATIVE TIME STEP:    5838
 MODFLOW STRESS PERIOD      2     CURRENT TIME STEP:    5838     ITERATIONS:      12

 -----------------------------------------------------------------------------------

   CUMULATIVE VOLUMES               L**3   RATES FOR THIS TIME STEP           L**3/T
   ------------------                      ------------------------

                                     IN                                         IN
                                     --                                         --
        PRECIPITATION =        4.6637D+08          PRECIPITATION =                  
           STREAMFLOW =                               STREAMFLOW =                  
     GW BOUNDARY FLOW =                         GW BOUNDARY FLOW =                  


                                    OUT                                        OUT
                                    ---                                        ---
   EVAPOTRANSPIRATION =        2.9046D+08     EVAPOTRANSPIRATION =          56976.08
           STREAMFLOW =        1.8099D+08             STREAMFLOW =           6389.93
     GW BOUNDARY FLOW =        3776531.55       GW BOUNDARY FLOW =            648.02

   INFLOWS - OUTFLOWS =       -8862717.44     INFLOWS - OUTFLOWS =         -64014.02
             --------                                   --------

 TOTAL STORAGE CHANGE =       -8809739.47         STORAGE CHANGE =         -64046.50
       --------------                             --------------
         LAND SURFACE =                             LAND SURFACE =                  
            SOIL ZONE =         635745.38              SOIL ZONE =         -44938.49
     UNSATURATED ZONE =        3864997.24       UNSATURATED ZONE =         -19219.73
       SATURATED ZONE =       -1.3310D+07         SATURATED ZONE =            111.73

 OVERALL BUDGET ERROR =         -52977.97           BUDGET ERROR =             32.48


  PERCENT DISCREPANCY =             -0.01    PERCENT DISCREPANCY =              0.05



 Number of time steps:   5844;  Number of non-convergence:   0
 MF iterations:         63701;  SZ iterations:           63663
 Average MF iterations: 10.90;  Average SZ iterations:   10.89
 Maximum MF iterations:    32;  Maximum SZ iterations:      25

mxsziter reached: 13

