1
 SUMMARY VOLUMETRIC BUDGET FOR GSFLOW 
 DATE: 10 07 1980              CUMULATIVE TIME STEP:       7
 MODFLOW STRESS PERIOD      2     CURRENT TIME STEP:       7     ITERATIONS:       6

 -----------------------------------------------------------------------------------

   CUMULATIVE VOLUMES               L**3   RATES FOR THIS TIME STEP           L**3/T
   ------------------                      ------------------------

                                     IN                                         IN
                                     --                                         --
        PRECIPITATION =                            PRECIPITATION =                  
           STREAMFLOW =                               STREAMFLOW =                  
     GW BOUNDARY FLOW =                         GW BOUNDARY FLOW =                  


                                    OUT                                        OUT
                                    ---                                        ---
   EVAPOTRANSPIRATION =          64707.80     EVAPOTRANSPIRATION =           9413.79
           STREAMFLOW =          42957.63             STREAMFLOW =           6065.77
     GW BOUNDARY FLOW =           4541.44       GW BOUNDARY FLOW =            648.70

   INFLOWS - OUTFLOWS =        -112206.87     INFLOWS - OUTFLOWS =         -16128.26
             --------                                   --------

 TOTAL STORAGE CHANGE =        -111751.08         STORAGE CHANGE =         -16059.95
       --------------                             --------------
         LAND SURFACE =                             LAND SURFACE =                  
            SOIL ZONE =          45809.25              SOIL ZONE =           6282.63
     UNSATURATED ZONE =        -144777.37       UNSATURATED ZONE =         -20360.11
       SATURATED ZONE =         -12782.96         SATURATED ZONE =          -1982.46

 OVERALL BUDGET ERROR =           -455.78           BUDGET ERROR =            -68.32


  PERCENT DISCREPANCY =             -0.41    PERCENT DISCREPANCY =             -0.42



1
 SUMMARY VOLUMETRIC BUDGET FOR GSFLOW 
 DATE: 10 14 1980              CUMULATIVE TIME STEP:      14
 MODFLOW STRESS PERIOD      2     CURRENT TIME STEP:      14     ITERATIONS:       6

 -----------------------------------------------------------------------------------

   CUMULATIVE VOLUMES               L**3   RATES FOR THIS TIME STEP           L**3/T
   ------------------                      ------------------------

                                     IN                                         IN
                                     --                                         --
        PRECIPITATION =         650780.39          PRECIPITATION =         164754.68
           STREAMFLOW =                               STREAMFLOW =                  
     GW BOUNDARY FLOW =                         GW BOUNDARY FLOW =                  


                                    OUT                                        OUT
                                    ---                                        ---
   EVAPOTRANSPIRATION =         152248.88     EVAPOTRANSPIRATION =           8384.46
           STREAMFLOW =          92672.17             STREAMFLOW =           7491.35
     GW BOUNDARY FLOW =           9082.78       GW BOUNDARY FLOW =            648.89

   INFLOWS - OUTFLOWS =         396776.57     INFLOWS - OUTFLOWS =         148229.97
             --------                                   --------

 TOTAL STORAGE CHANGE =         397746.99         STORAGE CHANGE =         148303.83
       --------------                             --------------
         LAND SURFACE =         276219.45           LAND SURFACE =         136559.96
            SOIL ZONE =         433655.08              SOIL ZONE =          33762.18
     UNSATURATED ZONE =        -284452.30       UNSATURATED ZONE =         -19623.45
       SATURATED ZONE =         -27675.23         SATURATED ZONE =          -2394.86

 OVERALL BUDGET ERROR =           -970.42           BUDGET ERROR =            -73.86


  PERCENT DISCREPANCY =             -0.15    PERCENT DISCREPANCY =             -0.04



1
 SUMMARY VOLUMETRIC BUDGET FOR GSFLOW 
 DATE: 10 21 1980              CUMULATIVE TIME STEP:      21
 MODFLOW STRESS PERIOD      2     CURRENT TIME STEP:      21     ITERATIONS:       6

 -----------------------------------------------------------------------------------

   CUMULATIVE VOLUMES               L**3   RATES FOR THIS TIME STEP           L**3/T
   ------------------                      ------------------------

                                     IN                                         IN
                                     --                                         --
        PRECIPITATION =         733156.23          PRECIPITATION =                  
           STREAMFLOW =                               STREAMFLOW =                  
     GW BOUNDARY FLOW =                         GW BOUNDARY FLOW =                  


                                    OUT                                        OUT
                                    ---                                        ---
   EVAPOTRANSPIRATION =         398668.68     EVAPOTRANSPIRATION =          38889.33
           STREAMFLOW =         144696.42             STREAMFLOW =           7029.90
     GW BOUNDARY FLOW =          13624.53       GW BOUNDARY FLOW =            648.76

   INFLOWS - OUTFLOWS =         176166.60     INFLOWS - OUTFLOWS =         -46567.99
             --------                                   --------

 TOTAL STORAGE CHANGE =         177647.24         STORAGE CHANGE =         -46488.24
       --------------                             --------------
         LAND SURFACE =           1476.23           LAND SURFACE =          -2470.57
            SOIL ZONE =         641199.48              SOIL ZONE =         -22193.79
     UNSATURATED ZONE =        -418654.51       UNSATURATED ZONE =         -18818.41
       SATURATED ZONE =         -46373.95         SATURATED ZONE =          -3005.47

 OVERALL BUDGET ERROR =          -1480.64           BUDGET ERROR =            -79.75


  PERCENT DISCREPANCY =             -0.20    PERCENT DISCREPANCY =             -0.17



1
 SUMMARY VOLUMETRIC BUDGET FOR GSFLOW 
 DATE: 10 28 1980              CUMULATIVE TIME STEP:      28
 MODFLOW STRESS PERIOD      2     CURRENT TIME STEP:      28     ITERATIONS:       6

 -----------------------------------------------------------------------------------

   CUMULATIVE VOLUMES               L**3   RATES FOR THIS TIME STEP           L**3/T
   ------------------                      ------------------------

                                     IN                                         IN
                                     --                                         --
        PRECIPITATION =        1070899.96          PRECIPITATION =                  
           STREAMFLOW =                               STREAMFLOW =                  
     GW BOUNDARY FLOW =                         GW BOUNDARY FLOW =                  


                                    OUT                                        OUT
                                    ---                                        ---
   EVAPOTRANSPIRATION =         583338.31     EVAPOTRANSPIRATION =          24794.04
           STREAMFLOW =         198608.23             STREAMFLOW =           7816.95
     GW BOUNDARY FLOW =          18165.75       GW BOUNDARY FLOW =            648.78

   INFLOWS - OUTFLOWS =         270787.66     INFLOWS - OUTFLOWS =         -33259.78
             --------                                   --------

 TOTAL STORAGE CHANGE =         272846.71         STORAGE CHANGE =         -33171.49
       --------------                             --------------
         LAND SURFACE =          22266.37           LAND SURFACE =         -32074.17
            SOIL ZONE =         866996.14              SOIL ZONE =          20422.99
     UNSATURATED ZONE =        -547387.24       UNSATURATED ZONE =         -18030.74
       SATURATED ZONE =         -69028.56         SATURATED ZONE =          -3489.57

 OVERALL BUDGET ERROR =          -2059.04           BUDGET ERROR =            -88.29


  PERCENT DISCREPANCY =             -0.19    PERCENT DISCREPANCY =             -0.27



1
 SUMMARY VOLUMETRIC BUDGET FOR GSFLOW 
 DATE: 11 04 1980              CUMULATIVE TIME STEP:      35
 MODFLOW STRESS PERIOD      2     CURRENT TIME STEP:      35     ITERATIONS:       9

 -----------------------------------------------------------------------------------

   CUMULATIVE VOLUMES               L**3   RATES FOR THIS TIME STEP           L**3/T
   ------------------                      ------------------------

                                     IN                                         IN
                                     --                                         --
        PRECIPITATION =        1070899.96          PRECIPITATION =                  
           STREAMFLOW =                               STREAMFLOW =                  
     GW BOUNDARY FLOW =                         GW BOUNDARY FLOW =                  


                                    OUT                                        OUT
                                    ---                                        ---
   EVAPOTRANSPIRATION =         860810.66     EVAPOTRANSPIRATION =          32163.07
           STREAMFLOW =         249867.65             STREAMFLOW =           6854.16
     GW BOUNDARY FLOW =          22706.57       GW BOUNDARY FLOW =            648.61

   INFLOWS - OUTFLOWS =         -62484.92     INFLOWS - OUTFLOWS =         -39665.84
             --------                                   --------

 TOTAL STORAGE CHANGE =         -59956.25         STORAGE CHANGE =         -39611.40
       --------------                             --------------
         LAND SURFACE =                             LAND SURFACE =                  
            SOIL ZONE =         707309.41              SOIL ZONE =         -18064.08
     UNSATURATED ZONE =        -670855.74       UNSATURATED ZONE =         -17357.42
       SATURATED ZONE =         -96409.92         SATURATED ZONE =          -4189.91

 OVERALL BUDGET ERROR =          -2528.67           BUDGET ERROR =            -54.43


  PERCENT DISCREPANCY =             -0.22    PERCENT DISCREPANCY =             -0.14



1
 SUMMARY VOLUMETRIC BUDGET FOR GSFLOW 
 DATE: 11 11 1980              CUMULATIVE TIME STEP:      42
 MODFLOW STRESS PERIOD      2     CURRENT TIME STEP:      42     ITERATIONS:       7

 -----------------------------------------------------------------------------------

   CUMULATIVE VOLUMES               L**3   RATES FOR THIS TIME STEP           L**3/T
   ------------------                      ------------------------

                                     IN                                         IN
                                     --                                         --
        PRECIPITATION =        1573759.34          PRECIPITATION =         255182.10
           STREAMFLOW =                               STREAMFLOW =                  
     GW BOUNDARY FLOW =                         GW BOUNDARY FLOW =                  


                                    OUT                                        OUT
                                    ---                                        ---
   EVAPOTRANSPIRATION =        1073230.52     EVAPOTRANSPIRATION =          14689.00
           STREAMFLOW =         304471.18             STREAMFLOW =          10419.66
     GW BOUNDARY FLOW =          27247.11       GW BOUNDARY FLOW =            648.81

   INFLOWS - OUTFLOWS =         168810.53     INFLOWS - OUTFLOWS =         229424.63
             --------                                   --------

 TOTAL STORAGE CHANGE =         171901.90         STORAGE CHANGE =         229486.99
       --------------                             --------------
         LAND SURFACE =          78468.15           LAND SURFACE =          78394.24
            SOIL ZONE =        1009483.85              SOIL ZONE =         171854.55
     UNSATURATED ZONE =        -789530.93       UNSATURATED ZONE =         -16593.77
       SATURATED ZONE =        -126519.16         SATURATED ZONE =          -4168.03

 OVERALL BUDGET ERROR =          -3091.38           BUDGET ERROR =            -62.36


  PERCENT DISCREPANCY =             -0.20    PERCENT DISCREPANCY =             -0.02



1
 SUMMARY VOLUMETRIC BUDGET FOR GSFLOW 
 DATE: 11 18 1980              CUMULATIVE TIME STEP:      49
 MODFLOW STRESS PERIOD      2     CURRENT TIME STEP:      49     ITERATIONS:       6

 -----------------------------------------------------------------------------------

   CUMULATIVE VOLUMES               L**3   RATES FOR THIS TIME STEP           L**3/T
   ------------------                      ------------------------

                                     IN                                         IN
                                     --                                         --
        PRECIPITATION =        1573759.34          PRECIPITATION =                  
           STREAMFLOW =                               STREAMFLOW =                  
     GW BOUNDARY FLOW =                         GW BOUNDARY FLOW =                  


                                    OUT                                        OUT
                                    ---                                        ---
   EVAPOTRANSPIRATION =        1167262.88     EVAPOTRANSPIRATION =          20715.74
           STREAMFLOW =         365403.09             STREAMFLOW =           9146.09
     GW BOUNDARY FLOW =          31788.71       GW BOUNDARY FLOW =            648.83

   INFLOWS - OUTFLOWS =           9304.65     INFLOWS - OUTFLOWS =         -30510.65
             --------                                   --------

 TOTAL STORAGE CHANGE =          12981.73         STORAGE CHANGE =         -30405.77
       --------------                             --------------
         LAND SURFACE =           5392.38           LAND SURFACE =          -8365.05
            SOIL ZONE =        1070686.59              SOIL ZONE =          -1220.76
     UNSATURATED ZONE =        -903534.64       UNSATURATED ZONE =         -16015.70
       SATURATED ZONE =        -159562.60         SATURATED ZONE =          -4804.25

 OVERALL BUDGET ERROR =          -3677.08           BUDGET ERROR =           -104.88


  PERCENT DISCREPANCY =             -0.23    PERCENT DISCREPANCY =             -0.34



1
 SUMMARY VOLUMETRIC BUDGET FOR GSFLOW 
 DATE: 11 25 1980              CUMULATIVE TIME STEP:      56
 MODFLOW STRESS PERIOD      2     CURRENT TIME STEP:      56     ITERATIONS:       9

 -----------------------------------------------------------------------------------

   CUMULATIVE VOLUMES               L**3   RATES FOR THIS TIME STEP           L**3/T
   ------------------                      ------------------------

                                     IN                                         IN
                                     --                                         --
        PRECIPITATION =        1648813.76          PRECIPITATION =                  
           STREAMFLOW =                               STREAMFLOW =                  
     GW BOUNDARY FLOW =                         GW BOUNDARY FLOW =                  


                                    OUT                                        OUT
                                    ---                                        ---
   EVAPOTRANSPIRATION =        1247529.49     EVAPOTRANSPIRATION =           9311.85
           STREAMFLOW =         430382.91             STREAMFLOW =           9539.01
     GW BOUNDARY FLOW =          36330.70       GW BOUNDARY FLOW =            648.88

   INFLOWS - OUTFLOWS =         -65429.34     INFLOWS - OUTFLOWS =         -19499.75
             --------                                   --------

 TOTAL STORAGE CHANGE =         -61112.13         STORAGE CHANGE =         -19442.27
       --------------                             --------------
         LAND SURFACE =          53635.66           LAND SURFACE =          -9260.11
            SOIL ZONE =        1094228.65              SOIL ZONE =          10627.93
     UNSATURATED ZONE =       -1013231.66       UNSATURATED ZONE =         -15396.51
       SATURATED ZONE =        -195744.77         SATURATED ZONE =          -5413.58

 OVERALL BUDGET ERROR =          -4317.21           BUDGET ERROR =            -57.47


  PERCENT DISCREPANCY =             -0.25    PERCENT DISCREPANCY =             -0.30



1
 SUMMARY VOLUMETRIC BUDGET FOR GSFLOW 
 DATE: 12 02 1980              CUMULATIVE TIME STEP:      63
 MODFLOW STRESS PERIOD      2     CURRENT TIME STEP:      63     ITERATIONS:       8

 -----------------------------------------------------------------------------------

   CUMULATIVE VOLUMES               L**3   RATES FOR THIS TIME STEP           L**3/T
   ------------------                      ------------------------

                                     IN                                         IN
                                     --                                         --
        PRECIPITATION =        2076620.74          PRECIPITATION =                  
           STREAMFLOW =                               STREAMFLOW =                  
     GW BOUNDARY FLOW =                         GW BOUNDARY FLOW =                  


                                    OUT                                        OUT
                                    ---                                        ---
   EVAPOTRANSPIRATION =        1450111.32     EVAPOTRANSPIRATION =          36565.52
           STREAMFLOW =         511703.79             STREAMFLOW =          14761.18
     GW BOUNDARY FLOW =          40874.15       GW BOUNDARY FLOW =            649.37

   INFLOWS - OUTFLOWS =          73931.47     INFLOWS - OUTFLOWS =         -51976.07
             --------                                   --------

 TOTAL STORAGE CHANGE =          78687.20         STORAGE CHANGE =         -51915.42
       --------------                             --------------
         LAND SURFACE =         139383.33           LAND SURFACE =         -79132.05
            SOIL ZONE =        1286694.79              SOIL ZONE =          44806.46
     UNSATURATED ZONE =       -1115078.94       UNSATURATED ZONE =         -12984.31
       SATURATED ZONE =        -232311.98         SATURATED ZONE =          -4605.52

 OVERALL BUDGET ERROR =          -4755.73           BUDGET ERROR =            -60.65


  PERCENT DISCREPANCY =             -0.23    PERCENT DISCREPANCY =             -0.12



1
 SUMMARY VOLUMETRIC BUDGET FOR GSFLOW 
 DATE: 12 09 1980              CUMULATIVE TIME STEP:      70
 MODFLOW STRESS PERIOD      2     CURRENT TIME STEP:      70     ITERATIONS:       7

 -----------------------------------------------------------------------------------

   CUMULATIVE VOLUMES               L**3   RATES FOR THIS TIME STEP           L**3/T
   ------------------                      ------------------------

                                     IN                                         IN
                                     --                                         --
        PRECIPITATION =        4284363.13          PRECIPITATION =                  
           STREAMFLOW =                               STREAMFLOW =                  
     GW BOUNDARY FLOW =                         GW BOUNDARY FLOW =                  


                                    OUT                                        OUT
                                    ---                                        ---
   EVAPOTRANSPIRATION =        1476666.82     EVAPOTRANSPIRATION =           4180.71
           STREAMFLOW =         608800.31             STREAMFLOW =          14236.54
     GW BOUNDARY FLOW =          45420.58       GW BOUNDARY FLOW =            649.59

   INFLOWS - OUTFLOWS =        2153475.42     INFLOWS - OUTFLOWS =         -19066.83
             --------                                   --------

 TOTAL STORAGE CHANGE =        2158738.03         STORAGE CHANGE =         -19004.03
       --------------                             --------------
         LAND SURFACE =        2318913.19           LAND SURFACE =          -4180.71
            SOIL ZONE =        1324606.79              SOIL ZONE =           5295.59
     UNSATURATED ZONE =       -1213716.20       UNSATURATED ZONE =         -14237.11
       SATURATED ZONE =        -271065.75         SATURATED ZONE =          -5881.81

 OVERALL BUDGET ERROR =          -5262.61           BUDGET ERROR =            -62.80


  PERCENT DISCREPANCY =             -0.12    PERCENT DISCREPANCY =             -0.33



1
 SUMMARY VOLUMETRIC BUDGET FOR GSFLOW 
 DATE: 12 16 1980              CUMULATIVE TIME STEP:      77
 MODFLOW STRESS PERIOD      2     CURRENT TIME STEP:      77     ITERATIONS:       7

 -----------------------------------------------------------------------------------

   CUMULATIVE VOLUMES               L**3   RATES FOR THIS TIME STEP           L**3/T
   ------------------                      ------------------------

                                     IN                                         IN
                                     --                                         --
        PRECIPITATION =        4284363.13          PRECIPITATION =                  
           STREAMFLOW =                               STREAMFLOW =                  
     GW BOUNDARY FLOW =                         GW BOUNDARY FLOW =                  


                                    OUT                                        OUT
                                    ---                                        ---
   EVAPOTRANSPIRATION =        1628411.80     EVAPOTRANSPIRATION =          35671.84
           STREAMFLOW =         728619.42             STREAMFLOW =          25098.38
     GW BOUNDARY FLOW =          49968.98       GW BOUNDARY FLOW =            650.23

   INFLOWS - OUTFLOWS =        1877362.92     INFLOWS - OUTFLOWS =         -61420.45
             --------                                   --------

 TOTAL STORAGE CHANGE =        1883090.13         STORAGE CHANGE =         -61350.66
       --------------                             --------------
         LAND SURFACE =        1992209.97           LAND SURFACE =        -133890.11
            SOIL ZONE =        1505224.01              SOIL ZONE =          85864.72
     UNSATURATED ZONE =       -1303346.60       UNSATURATED ZONE =          -8957.85
       SATURATED ZONE =        -310997.25         SATURATED ZONE =          -4367.42

 OVERALL BUDGET ERROR =          -5727.21           BUDGET ERROR =            -69.79


  PERCENT DISCREPANCY =             -0.13    PERCENT DISCREPANCY =             -0.11



1
 SUMMARY VOLUMETRIC BUDGET FOR GSFLOW 
 DATE: 12 23 1980              CUMULATIVE TIME STEP:      84
 MODFLOW STRESS PERIOD      2     CURRENT TIME STEP:      84     ITERATIONS:       9

 -----------------------------------------------------------------------------------

   CUMULATIVE VOLUMES               L**3   RATES FOR THIS TIME STEP           L**3/T
   ------------------                      ------------------------

                                     IN                                         IN
                                     --                                         --
        PRECIPITATION =        4516755.31          PRECIPITATION =                  
           STREAMFLOW =                               STREAMFLOW =                  
     GW BOUNDARY FLOW =                         GW BOUNDARY FLOW =                  


                                    OUT                                        OUT
                                    ---                                        ---
   EVAPOTRANSPIRATION =        1848150.70     EVAPOTRANSPIRATION =          37528.68
           STREAMFLOW =         956767.83             STREAMFLOW =          30367.69
     GW BOUNDARY FLOW =          54529.39       GW BOUNDARY FLOW =            651.92

   INFLOWS - OUTFLOWS =        1657307.39     INFLOWS - OUTFLOWS =         -68548.29
             --------                                   --------

 TOTAL STORAGE CHANGE =        1663351.66         STORAGE CHANGE =         -68510.25
       --------------                             --------------
         LAND SURFACE =        1381392.70           LAND SURFACE =         -50105.36
            SOIL ZONE =        1966265.35              SOIL ZONE =          -8056.70
     UNSATURATED ZONE =       -1345224.23       UNSATURATED ZONE =          -5689.93
       SATURATED ZONE =        -339082.16         SATURATED ZONE =          -4658.26

 OVERALL BUDGET ERROR =          -6044.27           BUDGET ERROR =            -38.04


  PERCENT DISCREPANCY =             -0.13    PERCENT DISCREPANCY =             -0.06



1
 SUMMARY VOLUMETRIC BUDGET FOR GSFLOW 
 DATE: 12 30 1980              CUMULATIVE TIME STEP:      91
 MODFLOW STRESS PERIOD      2     CURRENT TIME STEP:      91     ITERATIONS:       9

 -----------------------------------------------------------------------------------

   CUMULATIVE VOLUMES               L**3   RATES FOR THIS TIME STEP           L**3/T
   ------------------                      ------------------------

                                     IN                                         IN
                                     --                                         --
        PRECIPITATION =        4516755.31          PRECIPITATION =                  
           STREAMFLOW =                               STREAMFLOW =                  
     GW BOUNDARY FLOW =                         GW BOUNDARY FLOW =                  


                                    OUT                                        OUT
                                    ---                                        ---
   EVAPOTRANSPIRATION =        2225556.66     EVAPOTRANSPIRATION =          48303.38
           STREAMFLOW =        1200360.27             STREAMFLOW =          26880.73
     GW BOUNDARY FLOW =          59096.00       GW BOUNDARY FLOW =            652.34

   INFLOWS - OUTFLOWS =        1031742.39     INFLOWS - OUTFLOWS =         -75836.45
             --------                                   --------

 TOTAL STORAGE CHANGE =        1037974.96         STORAGE CHANGE =         -75805.44
       --------------                             --------------
         LAND SURFACE =         593888.71           LAND SURFACE =         -39858.04
            SOIL ZONE =        2166683.07              SOIL ZONE =         -25837.90
     UNSATURATED ZONE =       -1357730.98       UNSATURATED ZONE =          -5715.50
       SATURATED ZONE =        -364865.85         SATURATED ZONE =          -4393.99

 OVERALL BUDGET ERROR =          -6232.58           BUDGET ERROR =            -31.01


  PERCENT DISCREPANCY =             -0.14    PERCENT DISCREPANCY =             -0.04



1
 SUMMARY VOLUMETRIC BUDGET FOR GSFLOW 
 DATE: 01 06 1981              CUMULATIVE TIME STEP:      98
 MODFLOW STRESS PERIOD      2     CURRENT TIME STEP:      98     ITERATIONS:       8

 -----------------------------------------------------------------------------------

   CUMULATIVE VOLUMES               L**3   RATES FOR THIS TIME STEP           L**3/T
   ------------------                      ------------------------

                                     IN                                         IN
                                     --                                         --
        PRECIPITATION =        5004445.82          PRECIPITATION =                  
           STREAMFLOW =                               STREAMFLOW =                  
     GW BOUNDARY FLOW =                         GW BOUNDARY FLOW =                  


                                    OUT                                        OUT
                                    ---                                        ---
   EVAPOTRANSPIRATION =        2455788.36     EVAPOTRANSPIRATION =          21308.81
           STREAMFLOW =        1352668.40             STREAMFLOW =          21048.76
     GW BOUNDARY FLOW =          63657.11       GW BOUNDARY FLOW =            651.19

   INFLOWS - OUTFLOWS =        1132331.94     INFLOWS - OUTFLOWS =         -43008.76
             --------                                   --------

 TOTAL STORAGE CHANGE =        1138782.46         STORAGE CHANGE =         -42968.95
       --------------                             --------------
         LAND SURFACE =         792878.26           LAND SURFACE =         -30427.03
            SOIL ZONE =        2177155.33              SOIL ZONE =           3580.22
     UNSATURATED ZONE =       -1427997.40       UNSATURATED ZONE =         -10374.30
       SATURATED ZONE =        -403253.74         SATURATED ZONE =          -5747.84

 OVERALL BUDGET ERROR =          -6450.51           BUDGET ERROR =            -39.82


  PERCENT DISCREPANCY =             -0.13    PERCENT DISCREPANCY =             -0.09



1
 SUMMARY VOLUMETRIC BUDGET FOR GSFLOW 
 DATE: 01 13 1981              CUMULATIVE TIME STEP:     105
 MODFLOW STRESS PERIOD      2     CURRENT TIME STEP:     105     ITERATIONS:       7

 -----------------------------------------------------------------------------------

   CUMULATIVE VOLUMES               L**3   RATES FOR THIS TIME STEP           L**3/T
   ------------------                      ------------------------

                                     IN                                         IN
                                     --                                         --
        PRECIPITATION =        5004445.82          PRECIPITATION =                  
           STREAMFLOW =                               STREAMFLOW =                  
     GW BOUNDARY FLOW =                         GW BOUNDARY FLOW =                  


                                    OUT                                        OUT
                                    ---                                        ---
   EVAPOTRANSPIRATION =        2670907.64     EVAPOTRANSPIRATION =          44139.86
           STREAMFLOW =        1501209.47             STREAMFLOW =          20024.26
     GW BOUNDARY FLOW =          68214.13       GW BOUNDARY FLOW =            650.82

   INFLOWS - OUTFLOWS =         764114.58     INFLOWS - OUTFLOWS =         -64814.94
             --------                                   --------

 TOTAL STORAGE CHANGE =         770934.30         STORAGE CHANGE =         -64750.59
       --------------                             --------------
         LAND SURFACE =         576014.54           LAND SURFACE =         -39804.52
            SOIL ZONE =        2132223.37              SOIL ZONE =          -9173.31
     UNSATURATED ZONE =       -1490987.51       UNSATURATED ZONE =          -9255.96
       SATURATED ZONE =        -446316.09         SATURATED ZONE =          -6516.80

 OVERALL BUDGET ERROR =          -6819.73           BUDGET ERROR =            -64.35


  PERCENT DISCREPANCY =             -0.14    PERCENT DISCREPANCY =             -0.10



1
 SUMMARY VOLUMETRIC BUDGET FOR GSFLOW 
 DATE: 01 20 1981              CUMULATIVE TIME STEP:     112
 MODFLOW STRESS PERIOD      2     CURRENT TIME STEP:     112     ITERATIONS:       8

 -----------------------------------------------------------------------------------

   CUMULATIVE VOLUMES               L**3   RATES FOR THIS TIME STEP           L**3/T
   ------------------                      ------------------------

                                     IN                                         IN
                                     --                                         --
        PRECIPITATION =        5170468.48          PRECIPITATION =          41503.16
           STREAMFLOW =                               STREAMFLOW =                  
     GW BOUNDARY FLOW =                         GW BOUNDARY FLOW =                  


                                    OUT                                        OUT
                                    ---                                        ---
   EVAPOTRANSPIRATION =        2973458.10     EVAPOTRANSPIRATION =          55219.03
           STREAMFLOW =        1641748.41             STREAMFLOW =          19961.65
     GW BOUNDARY FLOW =          72768.78       GW BOUNDARY FLOW =            650.61

   INFLOWS - OUTFLOWS =         482493.19     INFLOWS - OUTFLOWS =         -34328.13
             --------                                   --------

 TOTAL STORAGE CHANGE =         489649.41         STORAGE CHANGE =         -34288.32
       --------------                             --------------
         LAND SURFACE =         383009.66           LAND SURFACE =          -3370.26
            SOIL ZONE =        2123607.51              SOIL ZONE =         -21847.52
     UNSATURATED ZONE =       -1525803.37       UNSATURATED ZONE =          -2426.94
       SATURATED ZONE =        -491164.38         SATURATED ZONE =          -6643.59

 OVERALL BUDGET ERROR =          -7156.22           BUDGET ERROR =            -39.81


  PERCENT DISCREPANCY =             -0.14    PERCENT DISCREPANCY =             -0.05



1
 SUMMARY VOLUMETRIC BUDGET FOR GSFLOW 
 DATE: 01 27 1981              CUMULATIVE TIME STEP:     119
 MODFLOW STRESS PERIOD      2     CURRENT TIME STEP:     119     ITERATIONS:       8

 -----------------------------------------------------------------------------------

   CUMULATIVE VOLUMES               L**3   RATES FOR THIS TIME STEP           L**3/T
   ------------------                      ------------------------

                                     IN                                         IN
                                     --                                         --
        PRECIPITATION =        8646542.90          PRECIPITATION =        2936504.96
           STREAMFLOW =                               STREAMFLOW =                  
     GW BOUNDARY FLOW =                         GW BOUNDARY FLOW =                  


                                    OUT                                        OUT
                                    ---                                        ---
   EVAPOTRANSPIRATION =        3206047.16     EVAPOTRANSPIRATION =          12593.32
           STREAMFLOW =        1780857.71             STREAMFLOW =          18189.10
     GW BOUNDARY FLOW =          77322.48       GW BOUNDARY FLOW =            650.37

   INFLOWS - OUTFLOWS =        3582315.55     INFLOWS - OUTFLOWS =        2905072.18
             --------                                   --------

 TOTAL STORAGE CHANGE =        3589679.23         STORAGE CHANGE =        2905109.56
       --------------                             --------------
         LAND SURFACE =        3501265.68           LAND SURFACE =        2923863.90
            SOIL ZONE =        2156241.00              SOIL ZONE =          -5627.21
     UNSATURATED ZONE =       -1529614.11       UNSATURATED ZONE =          -6106.19
       SATURATED ZONE =        -538213.34         SATURATED ZONE =          -7020.94

 OVERALL BUDGET ERROR =          -7363.68           BUDGET ERROR =            -37.38


  PERCENT DISCREPANCY =             -0.09    PERCENT DISCREPANCY =             -0.00



1
 SUMMARY VOLUMETRIC BUDGET FOR GSFLOW 
 DATE: 02 03 1981              CUMULATIVE TIME STEP:     126
 MODFLOW STRESS PERIOD      2     CURRENT TIME STEP:     126     ITERATIONS:       9

 -----------------------------------------------------------------------------------

   CUMULATIVE VOLUMES               L**3   RATES FOR THIS TIME STEP           L**3/T
   ------------------                      ------------------------

                                     IN                                         IN
                                     --                                         --
        PRECIPITATION =        1.1739D+07          PRECIPITATION =                  
           STREAMFLOW =                               STREAMFLOW =                  
     GW BOUNDARY FLOW =                         GW BOUNDARY FLOW =                  


                                    OUT                                        OUT
                                    ---                                        ---
   EVAPOTRANSPIRATION =        3243395.65     EVAPOTRANSPIRATION =           8130.85
           STREAMFLOW =        1905855.37             STREAMFLOW =          17843.61
     GW BOUNDARY FLOW =          81874.26       GW BOUNDARY FLOW =            650.23

   INFLOWS - OUTFLOWS =        6507572.50     INFLOWS - OUTFLOWS =         -26624.69
             --------                                   --------

 TOTAL STORAGE CHANGE =        6515142.81         STORAGE CHANGE =         -26599.87
       --------------                             --------------
         LAND SURFACE =        6556072.09           LAND SURFACE =          -8130.85
            SOIL ZONE =        2149600.16              SOIL ZONE =            649.30
     UNSATURATED ZONE =       -1599677.62       UNSATURATED ZONE =         -11294.04
       SATURATED ZONE =        -590851.81         SATURATED ZONE =          -7824.27

 OVERALL BUDGET ERROR =          -7570.30           BUDGET ERROR =            -24.82


  PERCENT DISCREPANCY =             -0.06    PERCENT DISCREPANCY =             -0.09



1
 SUMMARY VOLUMETRIC BUDGET FOR GSFLOW 
 DATE: 02 10 1981              CUMULATIVE TIME STEP:     133
 MODFLOW STRESS PERIOD      2     CURRENT TIME STEP:     133     ITERATIONS:       8

 -----------------------------------------------------------------------------------

   CUMULATIVE VOLUMES               L**3   RATES FOR THIS TIME STEP           L**3/T
   ------------------                      ------------------------

                                     IN                                         IN
                                     --                                         --
        PRECIPITATION =        1.1838D+07          PRECIPITATION =                  
           STREAMFLOW =                               STREAMFLOW =                  
     GW BOUNDARY FLOW =                         GW BOUNDARY FLOW =                  


                                    OUT                                        OUT
                                    ---                                        ---
   EVAPOTRANSPIRATION =        3377197.92     EVAPOTRANSPIRATION =          34657.17
           STREAMFLOW =        2031283.35             STREAMFLOW =          17963.16
     GW BOUNDARY FLOW =          86425.86       GW BOUNDARY FLOW =            650.22

   INFLOWS - OUTFLOWS =        6343356.10     INFLOWS - OUTFLOWS =         -53270.55
             --------                                   --------

 TOTAL STORAGE CHANGE =        6351206.79         STORAGE CHANGE =         -53225.47
       --------------                             --------------
         LAND SURFACE =        6521835.27           LAND SURFACE =         -34657.17
            SOIL ZONE =        2154277.63              SOIL ZONE =            592.46
     UNSATURATED ZONE =       -1677100.32       UNSATURATED ZONE =         -10722.17
       SATURATED ZONE =        -647805.78         SATURATED ZONE =          -8438.59

 OVERALL BUDGET ERROR =          -7850.69           BUDGET ERROR =            -45.08


  PERCENT DISCREPANCY =             -0.07    PERCENT DISCREPANCY =             -0.08



1
 SUMMARY VOLUMETRIC BUDGET FOR GSFLOW 
 DATE: 02 17 1981              CUMULATIVE TIME STEP:     140
 MODFLOW STRESS PERIOD      2     CURRENT TIME STEP:     140     ITERATIONS:      14

 -----------------------------------------------------------------------------------

   CUMULATIVE VOLUMES               L**3   RATES FOR THIS TIME STEP           L**3/T
   ------------------                      ------------------------

                                     IN                                         IN
                                     --                                         --
        PRECIPITATION =        1.2765D+07          PRECIPITATION =          68928.68
           STREAMFLOW =                               STREAMFLOW =                  
     GW BOUNDARY FLOW =                         GW BOUNDARY FLOW =                  


                                    OUT                                        OUT
                                    ---                                        ---
   EVAPOTRANSPIRATION =        3725034.20     EVAPOTRANSPIRATION =          71068.59
           STREAMFLOW =        2576750.74             STREAMFLOW =         125502.30
     GW BOUNDARY FLOW =          90999.72       GW BOUNDARY FLOW =            656.86

   INFLOWS - OUTFLOWS =        6372196.00     INFLOWS - OUTFLOWS =        -128299.07
             --------                                   --------

 TOTAL STORAGE CHANGE =        6380318.10         STORAGE CHANGE =        -128284.85
       --------------                             --------------
         LAND SURFACE =        5520961.35           LAND SURFACE =        -282519.69
            SOIL ZONE =        2957633.36              SOIL ZONE =          74070.51
     UNSATURATED ZONE =       -1434057.42       UNSATURATED ZONE =          77715.32
       SATURATED ZONE =        -664219.19         SATURATED ZONE =           2449.01

 OVERALL BUDGET ERROR =          -8122.09           BUDGET ERROR =            -14.22


  PERCENT DISCREPANCY =             -0.06    PERCENT DISCREPANCY =             -0.01



1
 SUMMARY VOLUMETRIC BUDGET FOR GSFLOW 
 DATE: 02 24 1981              CUMULATIVE TIME STEP:     147
 MODFLOW STRESS PERIOD      2     CURRENT TIME STEP:     147     ITERATIONS:      14

 -----------------------------------------------------------------------------------

   CUMULATIVE VOLUMES               L**3   RATES FOR THIS TIME STEP           L**3/T
   ------------------                      ------------------------

                                     IN                                         IN
                                     --                                         --
        PRECIPITATION =        1.3179D+07          PRECIPITATION =         344647.71
           STREAMFLOW =                               STREAMFLOW =                  
     GW BOUNDARY FLOW =                         GW BOUNDARY FLOW =                  


                                    OUT                                        OUT
                                    ---                                        ---
   EVAPOTRANSPIRATION =        4101130.17     EVAPOTRANSPIRATION =          19832.91
           STREAMFLOW =        3147715.49             STREAMFLOW =          52425.76
     GW BOUNDARY FLOW =          95594.25       GW BOUNDARY FLOW =            655.32

   INFLOWS - OUTFLOWS =        5834118.55     INFLOWS - OUTFLOWS =         271733.71
             --------                                   --------

 TOTAL STORAGE CHANGE =        5842192.50         STORAGE CHANGE =         271736.18
       --------------                             --------------
         LAND SURFACE =        4855204.85           LAND SURFACE =         285466.59
            SOIL ZONE =        2698842.54              SOIL ZONE =         -45831.11
     UNSATURATED ZONE =       -1072892.54       UNSATURATED ZONE =          29749.13
       SATURATED ZONE =        -638962.36         SATURATED ZONE =           2351.58

 OVERALL BUDGET ERROR =          -8073.95           BUDGET ERROR =             -2.47


  PERCENT DISCREPANCY =             -0.06    PERCENT DISCREPANCY =             -0.00



1
 SUMMARY VOLUMETRIC BUDGET FOR GSFLOW 
 DATE: 03 03 1981              CUMULATIVE TIME STEP:     154
 MODFLOW STRESS PERIOD      2     CURRENT TIME STEP:     154     ITERATIONS:      11

 -----------------------------------------------------------------------------------

   CUMULATIVE VOLUMES               L**3   RATES FOR THIS TIME STEP           L**3/T
   ------------------                      ------------------------

                                     IN                                         IN
                                     --                                         --
        PRECIPITATION =        1.3447D+07          PRECIPITATION =                  
           STREAMFLOW =                               STREAMFLOW =                  
     GW BOUNDARY FLOW =                         GW BOUNDARY FLOW =                  


                                    OUT                                        OUT
                                    ---                                        ---
   EVAPOTRANSPIRATION =        4263813.14     EVAPOTRANSPIRATION =          44579.34
           STREAMFLOW =        3371874.59             STREAMFLOW =          27500.08
     GW BOUNDARY FLOW =         100167.44       GW BOUNDARY FLOW =            652.30

   INFLOWS - OUTFLOWS =        5710763.62     INFLOWS - OUTFLOWS =         -72731.71
             --------                                   --------

 TOTAL STORAGE CHANGE =        5718740.50         STORAGE CHANGE =         -72748.14
       --------------                             --------------
         LAND SURFACE =        4939839.73           LAND SURFACE =         -63652.79
            SOIL ZONE =        2487858.58              SOIL ZONE =           1611.43
     UNSATURATED ZONE =       -1066076.61       UNSATURATED ZONE =          -8820.36
       SATURATED ZONE =        -642881.21         SATURATED ZONE =          -1886.43

 OVERALL BUDGET ERROR =          -7976.88           BUDGET ERROR =             16.43


  PERCENT DISCREPANCY =             -0.06    PERCENT DISCREPANCY =              0.02



1
 SUMMARY VOLUMETRIC BUDGET FOR GSFLOW 
 DATE: 03 10 1981              CUMULATIVE TIME STEP:     161
 MODFLOW STRESS PERIOD      2     CURRENT TIME STEP:     161     ITERATIONS:      11

 -----------------------------------------------------------------------------------

   CUMULATIVE VOLUMES               L**3   RATES FOR THIS TIME STEP           L**3/T
   ------------------                      ------------------------

                                     IN                                         IN
                                     --                                         --
        PRECIPITATION =        1.3493D+07          PRECIPITATION =                  
           STREAMFLOW =                               STREAMFLOW =                  
     GW BOUNDARY FLOW =                         GW BOUNDARY FLOW =                  


                                    OUT                                        OUT
                                    ---                                        ---
   EVAPOTRANSPIRATION =        4606054.62     EVAPOTRANSPIRATION =          71768.39
           STREAMFLOW =        3611933.53             STREAMFLOW =          44625.76
     GW BOUNDARY FLOW =         104733.88       GW BOUNDARY FLOW =            653.02

   INFLOWS - OUTFLOWS =        5170232.48     INFLOWS - OUTFLOWS =        -117047.16
             --------                                   --------

 TOTAL STORAGE CHANGE =        5178157.45         STORAGE CHANGE =        -117045.58
       --------------                             --------------
         LAND SURFACE =        4242268.38           LAND SURFACE =        -173807.93
            SOIL ZONE =        2613689.48              SOIL ZONE =          31746.27
     UNSATURATED ZONE =       -1024019.79       UNSATURATED ZONE =          25011.06
       SATURATED ZONE =        -653780.61         SATURATED ZONE =              5.03

 OVERALL BUDGET ERROR =          -7924.97           BUDGET ERROR =             -1.59


  PERCENT DISCREPANCY =             -0.06    PERCENT DISCREPANCY =             -0.00



1
 SUMMARY VOLUMETRIC BUDGET FOR GSFLOW 
 DATE: 03 17 1981              CUMULATIVE TIME STEP:     168
 MODFLOW STRESS PERIOD      2     CURRENT TIME STEP:     168     ITERATIONS:      10

 -----------------------------------------------------------------------------------

   CUMULATIVE VOLUMES               L**3   RATES FOR THIS TIME STEP           L**3/T
   ------------------                      ------------------------

                                     IN                                         IN
                                     --                                         --
        PRECIPITATION =        1.3745D+07          PRECIPITATION =                  
           STREAMFLOW =                               STREAMFLOW =                  
     GW BOUNDARY FLOW =                         GW BOUNDARY FLOW =                  


                                    OUT                                        OUT
                                    ---                                        ---
   EVAPOTRANSPIRATION =        4973787.45     EVAPOTRANSPIRATION =          39557.19
           STREAMFLOW =        3843459.25             STREAMFLOW =          24426.36
     GW BOUNDARY FLOW =         109301.86       GW BOUNDARY FLOW =            651.97

   INFLOWS - OUTFLOWS =        4817954.25     INFLOWS - OUTFLOWS =         -64635.53
             --------                                   --------

 TOTAL STORAGE CHANGE =        4825793.69         STORAGE CHANGE =         -64640.63
       --------------                             --------------
         LAND SURFACE =        4045040.66           LAND SURFACE =         -39206.25
            SOIL ZONE =        2441160.71              SOIL ZONE =          -5903.26
     UNSATURATED ZONE =        -992351.74       UNSATURATED ZONE =         -15694.94
       SATURATED ZONE =        -668055.94         SATURATED ZONE =          -3836.18

 OVERALL BUDGET ERROR =          -7839.43           BUDGET ERROR =              5.10


  PERCENT DISCREPANCY =             -0.06    PERCENT DISCREPANCY =              0.01



1
 SUMMARY VOLUMETRIC BUDGET FOR GSFLOW 
 DATE: 03 24 1981              CUMULATIVE TIME STEP:     175
 MODFLOW STRESS PERIOD      2     CURRENT TIME STEP:     175     ITERATIONS:      10

 -----------------------------------------------------------------------------------

   CUMULATIVE VOLUMES               L**3   RATES FOR THIS TIME STEP           L**3/T
   ------------------                      ------------------------

                                     IN                                         IN
                                     --                                         --
        PRECIPITATION =        1.4367D+07          PRECIPITATION =                  
           STREAMFLOW =                               STREAMFLOW =                  
     GW BOUNDARY FLOW =                         GW BOUNDARY FLOW =                  


                                    OUT                                        OUT
                                    ---                                        ---
   EVAPOTRANSPIRATION =        5326859.89     EVAPOTRANSPIRATION =          85696.82
           STREAMFLOW =        4022186.66             STREAMFLOW =          27440.68
     GW BOUNDARY FLOW =         113862.87       GW BOUNDARY FLOW =            651.53

   INFLOWS - OUTFLOWS =        4903846.82     INFLOWS - OUTFLOWS =        -113789.02
             --------                                   --------

 TOTAL STORAGE CHANGE =        4911712.43         STORAGE CHANGE =        -113788.63
       --------------                             --------------
         LAND SURFACE =        4311002.87           LAND SURFACE =         -69102.11
            SOIL ZONE =        2358587.21              SOIL ZONE =         -37474.06
     UNSATURATED ZONE =       -1058783.78       UNSATURATED ZONE =          -2719.72
       SATURATED ZONE =        -699093.88         SATURATED ZONE =          -4492.73

 OVERALL BUDGET ERROR =          -7865.61           BUDGET ERROR =             -0.40


  PERCENT DISCREPANCY =             -0.05    PERCENT DISCREPANCY =             -0.00



1
 SUMMARY VOLUMETRIC BUDGET FOR GSFLOW 
 DATE: 03 31 1981              CUMULATIVE TIME STEP:     182
 MODFLOW STRESS PERIOD      2     CURRENT TIME STEP:     182     ITERATIONS:      12

 -----------------------------------------------------------------------------------

   CUMULATIVE VOLUMES               L**3   RATES FOR THIS TIME STEP           L**3/T
   ------------------                      ------------------------

                                     IN                                         IN
                                     --                                         --
        PRECIPITATION =        1.5777D+07          PRECIPITATION =                  
           STREAMFLOW =                               STREAMFLOW =                  
     GW BOUNDARY FLOW =                         GW BOUNDARY FLOW =                  


                                    OUT                                        OUT
                                    ---                                        ---
   EVAPOTRANSPIRATION =        5752369.24     EVAPOTRANSPIRATION =          55421.24
           STREAMFLOW =        4542802.50             STREAMFLOW =          37718.86
     GW BOUNDARY FLOW =         118445.57       GW BOUNDARY FLOW =            653.65

   INFLOWS - OUTFLOWS =        5363148.87     INFLOWS - OUTFLOWS =         -93793.74
             --------                                   --------

 TOTAL STORAGE CHANGE =        5370954.84         STORAGE CHANGE =         -93812.89
       --------------                             --------------
         LAND SURFACE =        4311781.03           LAND SURFACE =         -56481.36
            SOIL ZONE =        2555072.65              SOIL ZONE =         -43912.87
     UNSATURATED ZONE =        -807529.13       UNSATURATED ZONE =           6780.65
       SATURATED ZONE =        -688369.72         SATURATED ZONE =           -199.32

 OVERALL BUDGET ERROR =          -7805.97           BUDGET ERROR =             19.15


  PERCENT DISCREPANCY =             -0.05    PERCENT DISCREPANCY =              0.02



1
 SUMMARY VOLUMETRIC BUDGET FOR GSFLOW 
 DATE: 04 07 1981              CUMULATIVE TIME STEP:     189
 MODFLOW STRESS PERIOD      2     CURRENT TIME STEP:     189     ITERATIONS:      10

 -----------------------------------------------------------------------------------

   CUMULATIVE VOLUMES               L**3   RATES FOR THIS TIME STEP           L**3/T
   ------------------                      ------------------------

                                     IN                                         IN
                                     --                                         --
        PRECIPITATION =        1.6121D+07          PRECIPITATION =                  
           STREAMFLOW =                               STREAMFLOW =                  
     GW BOUNDARY FLOW =                         GW BOUNDARY FLOW =                  


                                    OUT                                        OUT
                                    ---                                        ---
   EVAPOTRANSPIRATION =        6397973.83     EVAPOTRANSPIRATION =         106275.95
           STREAMFLOW =        4869564.12             STREAMFLOW =          44297.00
     GW BOUNDARY FLOW =         123021.72       GW BOUNDARY FLOW =            653.84

   INFLOWS - OUTFLOWS =        4730923.48     INFLOWS - OUTFLOWS =        -151226.80
             --------                                   --------

 TOTAL STORAGE CHANGE =        4738589.12         STORAGE CHANGE =        -151260.56
       --------------                             --------------
         LAND SURFACE =        3643166.11           LAND SURFACE =        -144945.81
            SOIL ZONE =        2490989.04              SOIL ZONE =         -18602.74
     UNSATURATED ZONE =        -714703.26       UNSATURATED ZONE =          11330.95
       SATURATED ZONE =        -680862.76         SATURATED ZONE =            957.05

 OVERALL BUDGET ERROR =          -7665.64           BUDGET ERROR =             33.76


  PERCENT DISCREPANCY =             -0.05    PERCENT DISCREPANCY =              0.02



1
 SUMMARY VOLUMETRIC BUDGET FOR GSFLOW 
 DATE: 04 14 1981              CUMULATIVE TIME STEP:     196
 MODFLOW STRESS PERIOD      2     CURRENT TIME STEP:     196     ITERATIONS:      13

 -----------------------------------------------------------------------------------

   CUMULATIVE VOLUMES               L**3   RATES FOR THIS TIME STEP           L**3/T
   ------------------                      ------------------------

                                     IN                                         IN
                                     --                                         --
        PRECIPITATION =        1.6121D+07          PRECIPITATION =                  
           STREAMFLOW =                               STREAMFLOW =                  
     GW BOUNDARY FLOW =                         GW BOUNDARY FLOW =                  


                                    OUT                                        OUT
                                    ---                                        ---
   EVAPOTRANSPIRATION =        7325004.88     EVAPOTRANSPIRATION =         190847.08
           STREAMFLOW =        5194996.73             STREAMFLOW =          53333.21
     GW BOUNDARY FLOW =         127596.92       GW BOUNDARY FLOW =            653.48

   INFLOWS - OUTFLOWS =        3473884.62     INFLOWS - OUTFLOWS =        -244833.77
             --------                                   --------

 TOTAL STORAGE CHANGE =        3481403.42         STORAGE CHANGE =        -244836.70
       --------------                             --------------
         LAND SURFACE =        2384001.49           LAND SURFACE =        -245772.91
            SOIL ZONE =        2392334.53              SOIL ZONE =         -19793.33
     UNSATURATED ZONE =        -623544.42       UNSATURATED ZONE =          18384.14
       SATURATED ZONE =        -671388.18         SATURATED ZONE =           2345.41

 OVERALL BUDGET ERROR =          -7518.80           BUDGET ERROR =              2.93


  PERCENT DISCREPANCY =             -0.05    PERCENT DISCREPANCY =              0.00



1
 SUMMARY VOLUMETRIC BUDGET FOR GSFLOW 
 DATE: 04 21 1981              CUMULATIVE TIME STEP:     203
 MODFLOW STRESS PERIOD      2     CURRENT TIME STEP:     203     ITERATIONS:      13

 -----------------------------------------------------------------------------------

   CUMULATIVE VOLUMES               L**3   RATES FOR THIS TIME STEP           L**3/T
   ------------------                      ------------------------

                                     IN                                         IN
                                     --                                         --
        PRECIPITATION =        1.6310D+07          PRECIPITATION =                  
           STREAMFLOW =                               STREAMFLOW =                  
     GW BOUNDARY FLOW =                         GW BOUNDARY FLOW =                  


                                    OUT                                        OUT
                                    ---                                        ---
   EVAPOTRANSPIRATION =        8407101.11     EVAPOTRANSPIRATION =         154246.51
           STREAMFLOW =        5515250.67             STREAMFLOW =          42435.55
     GW BOUNDARY FLOW =         132166.55       GW BOUNDARY FLOW =            652.35

   INFLOWS - OUTFLOWS =        2255739.09     INFLOWS - OUTFLOWS =        -197334.42
             --------                                   --------

 TOTAL STORAGE CHANGE =        2263121.63         STORAGE CHANGE =        -197346.49
       --------------                             --------------
         LAND SURFACE =        1240286.55           LAND SURFACE =        -113920.25
            SOIL ZONE =        2198914.64              SOIL ZONE =         -99935.29
     UNSATURATED ZONE =        -521127.13       UNSATURATED ZONE =          13880.36
       SATURATED ZONE =        -654952.43         SATURATED ZONE =           2628.69

 OVERALL BUDGET ERROR =          -7382.54           BUDGET ERROR =             12.07


  PERCENT DISCREPANCY =             -0.05    PERCENT DISCREPANCY =              0.01



1
 SUMMARY VOLUMETRIC BUDGET FOR GSFLOW 
 DATE: 04 28 1981              CUMULATIVE TIME STEP:     210
 MODFLOW STRESS PERIOD      2     CURRENT TIME STEP:     210     ITERATIONS:      14

 -----------------------------------------------------------------------------------

   CUMULATIVE VOLUMES               L**3   RATES FOR THIS TIME STEP           L**3/T
   ------------------                      ------------------------

                                     IN                                         IN
                                     --                                         --
        PRECIPITATION =        1.6515D+07          PRECIPITATION =                  
           STREAMFLOW =                               STREAMFLOW =                  
     GW BOUNDARY FLOW =                         GW BOUNDARY FLOW =                  


                                    OUT                                        OUT
                                    ---                                        ---
   EVAPOTRANSPIRATION =        9662581.24     EVAPOTRANSPIRATION =         199793.34
           STREAMFLOW =        5705938.75             STREAMFLOW =          21710.26
     GW BOUNDARY FLOW =         136723.91       GW BOUNDARY FLOW =            650.18

   INFLOWS - OUTFLOWS =        1010203.05     INFLOWS - OUTFLOWS =        -222153.78
             --------                                   --------

 TOTAL STORAGE CHANGE =        1017483.75         STORAGE CHANGE =        -222156.93
       --------------                             --------------
         LAND SURFACE =         564436.32           LAND SURFACE =         -69719.35
            SOIL ZONE =        1648499.59              SOIL ZONE =        -144291.07
     UNSATURATED ZONE =        -543800.72       UNSATURATED ZONE =          -7767.37
       SATURATED ZONE =        -651651.43         SATURATED ZONE =           -379.14

 OVERALL BUDGET ERROR =          -7280.70           BUDGET ERROR =              3.15


  PERCENT DISCREPANCY =             -0.04    PERCENT DISCREPANCY =              0.00



1
 SUMMARY VOLUMETRIC BUDGET FOR GSFLOW 
 DATE: 05 05 1981              CUMULATIVE TIME STEP:     217
 MODFLOW STRESS PERIOD      2     CURRENT TIME STEP:     217     ITERATIONS:      14

 -----------------------------------------------------------------------------------

   CUMULATIVE VOLUMES               L**3   RATES FOR THIS TIME STEP           L**3/T
   ------------------                      ------------------------

                                     IN                                         IN
                                     --                                         --
        PRECIPITATION =        1.6515D+07          PRECIPITATION =                  
           STREAMFLOW =                               STREAMFLOW =                  
     GW BOUNDARY FLOW =                         GW BOUNDARY FLOW =                  


                                    OUT                                        OUT
                                    ---                                        ---
   EVAPOTRANSPIRATION =        1.0533D+07     EVAPOTRANSPIRATION =          53812.41
           STREAMFLOW =        5801666.04             STREAMFLOW =          10122.11
     GW BOUNDARY FLOW =         141268.73       GW BOUNDARY FLOW =            648.65

   INFLOWS - OUTFLOWS =          39025.26     INFLOWS - OUTFLOWS =         -64583.16
             --------                                   --------

 TOTAL STORAGE CHANGE =          46251.54         STORAGE CHANGE =         -64581.24
       --------------                             --------------
         LAND SURFACE =         274449.39           LAND SURFACE =         -15694.20
            SOIL ZONE =        1087988.37              SOIL ZONE =         -28921.06
     UNSATURATED ZONE =        -648602.76       UNSATURATED ZONE =         -16574.39
       SATURATED ZONE =        -667583.47         SATURATED ZONE =          -3391.59

 OVERALL BUDGET ERROR =          -7226.27           BUDGET ERROR =             -1.93


  PERCENT DISCREPANCY =             -0.04    PERCENT DISCREPANCY =             -0.00



1
 SUMMARY VOLUMETRIC BUDGET FOR GSFLOW 
 DATE: 05 12 1981              CUMULATIVE TIME STEP:     224
 MODFLOW STRESS PERIOD      2     CURRENT TIME STEP:     224     ITERATIONS:      15

 -----------------------------------------------------------------------------------

   CUMULATIVE VOLUMES               L**3   RATES FOR THIS TIME STEP           L**3/T
   ------------------                      ------------------------

                                     IN                                         IN
                                     --                                         --
        PRECIPITATION =        1.6515D+07          PRECIPITATION =                  
           STREAMFLOW =                               STREAMFLOW =                  
     GW BOUNDARY FLOW =                         GW BOUNDARY FLOW =                  


                                    OUT                                        OUT
                                    ---                                        ---
   EVAPOTRANSPIRATION =        1.1019D+07     EVAPOTRANSPIRATION =          81499.96
           STREAMFLOW =        5867137.77             STREAMFLOW =           9400.19
     GW BOUNDARY FLOW =         145806.44       GW BOUNDARY FLOW =            648.07

   INFLOWS - OUTFLOWS =        -516283.11     INFLOWS - OUTFLOWS =         -91548.22
             --------                                   --------

 TOTAL STORAGE CHANGE =        -509041.80         STORAGE CHANGE =         -91542.26
       --------------                             --------------
         LAND SURFACE =         151503.22           LAND SURFACE =         -20311.37
            SOIL ZONE =         796879.27              SOIL ZONE =         -51485.99
     UNSATURATED ZONE =        -756995.86       UNSATURATED ZONE =         -13984.73
       SATURATED ZONE =        -700428.44         SATURATED ZONE =          -5760.17

 OVERALL BUDGET ERROR =          -7241.30           BUDGET ERROR =             -5.96


  PERCENT DISCREPANCY =             -0.04    PERCENT DISCREPANCY =             -0.01



1
 SUMMARY VOLUMETRIC BUDGET FOR GSFLOW 
 DATE: 05 19 1981              CUMULATIVE TIME STEP:     231
 MODFLOW STRESS PERIOD      2     CURRENT TIME STEP:     231     ITERATIONS:      12

 -----------------------------------------------------------------------------------

   CUMULATIVE VOLUMES               L**3   RATES FOR THIS TIME STEP           L**3/T
   ------------------                      ------------------------

                                     IN                                         IN
                                     --                                         --
        PRECIPITATION =        1.7837D+07          PRECIPITATION =         169047.83
           STREAMFLOW =                               STREAMFLOW =                  
     GW BOUNDARY FLOW =                         GW BOUNDARY FLOW =                  


                                    OUT                                        OUT
                                    ---                                        ---
   EVAPOTRANSPIRATION =        1.1417D+07     EVAPOTRANSPIRATION =          34209.10
           STREAMFLOW =        5984491.70             STREAMFLOW =          22692.02
     GW BOUNDARY FLOW =         150344.77       GW BOUNDARY FLOW =            649.26

   INFLOWS - OUTFLOWS =         285426.27     INFLOWS - OUTFLOWS =         111497.45
             --------                                   --------

 TOTAL STORAGE CHANGE =         292678.35         STORAGE CHANGE =         111495.81
       --------------                             --------------
         LAND SURFACE =         128062.97           LAND SURFACE =           8890.94
            SOIL ZONE =        1742765.11              SOIL ZONE =         113952.23
     UNSATURATED ZONE =        -835451.83       UNSATURATED ZONE =          -4982.44
       SATURATED ZONE =        -742697.90         SATURATED ZONE =          -6364.93

 OVERALL BUDGET ERROR =          -7252.08           BUDGET ERROR =              1.64


  PERCENT DISCREPANCY =             -0.04    PERCENT DISCREPANCY =              0.00



1
 SUMMARY VOLUMETRIC BUDGET FOR GSFLOW 
 DATE: 05 26 1981              CUMULATIVE TIME STEP:     238
 MODFLOW STRESS PERIOD      2     CURRENT TIME STEP:     238     ITERATIONS:      13

 -----------------------------------------------------------------------------------

   CUMULATIVE VOLUMES               L**3   RATES FOR THIS TIME STEP           L**3/T
   ------------------                      ------------------------

                                     IN                                         IN
                                     --                                         --
        PRECIPITATION =        1.8252D+07          PRECIPITATION =         284301.98
           STREAMFLOW =                               STREAMFLOW =                  
     GW BOUNDARY FLOW =                         GW BOUNDARY FLOW =                  


                                    OUT                                        OUT
                                    ---                                        ---
   EVAPOTRANSPIRATION =        1.2309D+07     EVAPOTRANSPIRATION =         143526.21
           STREAMFLOW =        6080259.96             STREAMFLOW =          16567.85
     GW BOUNDARY FLOW =         154884.08       GW BOUNDARY FLOW =            648.24

   INFLOWS - OUTFLOWS =        -292157.72     INFLOWS - OUTFLOWS =         123559.69
             --------                                   --------

 TOTAL STORAGE CHANGE =        -284906.44         STORAGE CHANGE =         123567.72
       --------------                             --------------
         LAND SURFACE =          73193.54           LAND SURFACE =          -4919.55
            SOIL ZONE =        1344230.52              SOIL ZONE =         147161.81
     UNSATURATED ZONE =        -908355.44       UNSATURATED ZONE =         -11348.27
       SATURATED ZONE =        -793975.06         SATURATED ZONE =          -7326.27

 OVERALL BUDGET ERROR =          -7251.28           BUDGET ERROR =             -8.03


  PERCENT DISCREPANCY =             -0.04    PERCENT DISCREPANCY =             -0.00



1
 SUMMARY VOLUMETRIC BUDGET FOR GSFLOW 
 DATE: 06 02 1981              CUMULATIVE TIME STEP:     245
 MODFLOW STRESS PERIOD      2     CURRENT TIME STEP:     245     ITERATIONS:      14

 -----------------------------------------------------------------------------------

   CUMULATIVE VOLUMES               L**3   RATES FOR THIS TIME STEP           L**3/T
   ------------------                      ------------------------

                                     IN                                         IN
                                     --                                         --
        PRECIPITATION =        1.8318D+07          PRECIPITATION =          50867.39
           STREAMFLOW =                               STREAMFLOW =                  
     GW BOUNDARY FLOW =                         GW BOUNDARY FLOW =                  


                                    OUT                                        OUT
                                    ---                                        ---
   EVAPOTRANSPIRATION =        1.3076D+07     EVAPOTRANSPIRATION =          71955.93
           STREAMFLOW =        6142301.50             STREAMFLOW =           7225.08
     GW BOUNDARY FLOW =         159417.86       GW BOUNDARY FLOW =            647.31

   INFLOWS - OUTFLOWS =       -1059244.18     INFLOWS - OUTFLOWS =         -28960.94
             --------                                   --------

 TOTAL STORAGE CHANGE =       -1051962.83         STORAGE CHANGE =         -28954.67
       --------------                             --------------
         LAND SURFACE =          47848.10           LAND SURFACE =          31520.88
            SOIL ZONE =         752722.18              SOIL ZONE =         -38094.51
     UNSATURATED ZONE =        -999244.34       UNSATURATED ZONE =         -13669.81
       SATURATED ZONE =        -853288.77         SATURATED ZONE =          -8711.23

 OVERALL BUDGET ERROR =          -7281.35           BUDGET ERROR =             -6.27


  PERCENT DISCREPANCY =             -0.04    PERCENT DISCREPANCY =             -0.01



1
 SUMMARY VOLUMETRIC BUDGET FOR GSFLOW 
 DATE: 06 09 1981              CUMULATIVE TIME STEP:     252
 MODFLOW STRESS PERIOD      2     CURRENT TIME STEP:     252     ITERATIONS:      13

 -----------------------------------------------------------------------------------

   CUMULATIVE VOLUMES               L**3   RATES FOR THIS TIME STEP           L**3/T
   ------------------                      ------------------------

                                     IN                                         IN
                                     --                                         --
        PRECIPITATION =        1.8318D+07          PRECIPITATION =                  
           STREAMFLOW =                               STREAMFLOW =                  
     GW BOUNDARY FLOW =                         GW BOUNDARY FLOW =                  


                                    OUT                                        OUT
                                    ---                                        ---
   EVAPOTRANSPIRATION =        1.3534D+07     EVAPOTRANSPIRATION =          46937.40
           STREAMFLOW =        6187596.72             STREAMFLOW =           6173.48
     GW BOUNDARY FLOW =         163947.23       GW BOUNDARY FLOW =            646.91

   INFLOWS - OUTFLOWS =       -1567267.42     INFLOWS - OUTFLOWS =         -53757.79
             --------                                   --------

 TOTAL STORAGE CHANGE =       -1559960.58         STORAGE CHANGE =         -53756.76
       --------------                             --------------
         LAND SURFACE =           2219.95           LAND SURFACE =          -1071.39
            SOIL ZONE =         446038.12              SOIL ZONE =         -30593.27
     UNSATURATED ZONE =       -1091486.42       UNSATURATED ZONE =         -12954.79
       SATURATED ZONE =        -916732.24         SATURATED ZONE =          -9137.31

 OVERALL BUDGET ERROR =          -7306.84           BUDGET ERROR =             -1.03


  PERCENT DISCREPANCY =             -0.04    PERCENT DISCREPANCY =             -0.00



1
 SUMMARY VOLUMETRIC BUDGET FOR GSFLOW 
 DATE: 06 16 1981              CUMULATIVE TIME STEP:     259
 MODFLOW STRESS PERIOD      2     CURRENT TIME STEP:     259     ITERATIONS:      12

 -----------------------------------------------------------------------------------

   CUMULATIVE VOLUMES               L**3   RATES FOR THIS TIME STEP           L**3/T
   ------------------                      ------------------------

                                     IN                                         IN
                                     --                                         --
        PRECIPITATION =        1.8318D+07          PRECIPITATION =                  
           STREAMFLOW =                               STREAMFLOW =                  
     GW BOUNDARY FLOW =                         GW BOUNDARY FLOW =                  


                                    OUT                                        OUT
                                    ---                                        ---
   EVAPOTRANSPIRATION =        1.3706D+07     EVAPOTRANSPIRATION =          37814.76
           STREAMFLOW =        6230077.12             STREAMFLOW =           6011.41
     GW BOUNDARY FLOW =         168474.73       GW BOUNDARY FLOW =            646.70

   INFLOWS - OUTFLOWS =       -1786589.50     INFLOWS - OUTFLOWS =         -44472.86
             --------                                   --------

 TOTAL STORAGE CHANGE =       -1779239.29         STORAGE CHANGE =         -44462.45
       --------------                             --------------
         LAND SURFACE =                             LAND SURFACE =                  
            SOIL ZONE =         382301.98              SOIL ZONE =         -22690.45
     UNSATURATED ZONE =       -1178736.85       UNSATURATED ZONE =         -12202.67
       SATURATED ZONE =        -982804.42         SATURATED ZONE =          -9569.34

 OVERALL BUDGET ERROR =          -7350.21           BUDGET ERROR =            -10.41


  PERCENT DISCREPANCY =             -0.04    PERCENT DISCREPANCY =             -0.02



1
 SUMMARY VOLUMETRIC BUDGET FOR GSFLOW 
 DATE: 06 23 1981              CUMULATIVE TIME STEP:     266
 MODFLOW STRESS PERIOD      2     CURRENT TIME STEP:     266     ITERATIONS:      14

 -----------------------------------------------------------------------------------

   CUMULATIVE VOLUMES               L**3   RATES FOR THIS TIME STEP           L**3/T
   ------------------                      ------------------------

                                     IN                                         IN
                                     --                                         --
        PRECIPITATION =        1.8318D+07          PRECIPITATION =                  
           STREAMFLOW =                               STREAMFLOW =                  
     GW BOUNDARY FLOW =                         GW BOUNDARY FLOW =                  


                                    OUT                                        OUT
                                    ---                                        ---
   EVAPOTRANSPIRATION =        1.3962D+07     EVAPOTRANSPIRATION =          29664.63
           STREAMFLOW =        6271734.69             STREAMFLOW =           5908.52
     GW BOUNDARY FLOW =         173000.99       GW BOUNDARY FLOW =            646.54

   INFLOWS - OUTFLOWS =       -2088745.92     INFLOWS - OUTFLOWS =         -36219.69
             --------                                   --------

 TOTAL STORAGE CHANGE =       -2081372.56         STORAGE CHANGE =         -36218.85
       --------------                             --------------
         LAND SURFACE =                             LAND SURFACE =                  
            SOIL ZONE =         231522.28              SOIL ZONE =         -14708.66
     UNSATURATED ZONE =       -1261773.71       UNSATURATED ZONE =         -11606.08
       SATURATED ZONE =       -1051121.13         SATURATED ZONE =          -9904.11

 OVERALL BUDGET ERROR =          -7373.36           BUDGET ERROR =             -0.84


  PERCENT DISCREPANCY =             -0.04    PERCENT DISCREPANCY =             -0.00



1
 SUMMARY VOLUMETRIC BUDGET FOR GSFLOW 
 DATE: 06 30 1981              CUMULATIVE TIME STEP:     273
 MODFLOW STRESS PERIOD      2     CURRENT TIME STEP:     273     ITERATIONS:       9

 -----------------------------------------------------------------------------------

   CUMULATIVE VOLUMES               L**3   RATES FOR THIS TIME STEP           L**3/T
   ------------------                      ------------------------

                                     IN                                         IN
[...]
                                    ---                                        ---
   EVAPOTRANSPIRATION =        2.9080D+08     EVAPOTRANSPIRATION =          37324.28
           STREAMFLOW =        1.7943D+08             STREAMFLOW =           6826.79
     GW BOUNDARY FLOW =        3736031.76       GW BOUNDARY FLOW =            650.83

   INFLOWS - OUTFLOWS =       -8897396.59     INFLOWS - OUTFLOWS =         -44801.90
             --------                                   --------

 TOTAL STORAGE CHANGE =       -8769344.14         STORAGE CHANGE =         -44818.24
       --------------                             --------------
         LAND SURFACE =          87148.84           LAND SURFACE =          -3648.42
            SOIL ZONE =         212840.04              SOIL ZONE =         -20150.14
     UNSATURATED ZONE =        5598117.18       UNSATURATED ZONE =         -25941.40
       SATURATED ZONE =       -1.4667D+07         SATURATED ZONE =           4921.72

 OVERALL BUDGET ERROR =        -128052.46           BUDGET ERROR =             16.33


  PERCENT DISCREPANCY =             -0.03    PERCENT DISCREPANCY =              0.04



1
 SUMMARY VOLUMETRIC BUDGET FOR GSFLOW 
 DATE: 07 30 1996              CUMULATIVE TIME STEP:    5782
 MODFLOW STRESS PERIOD      2     CURRENT TIME STEP:    5782     ITERATIONS:      14

 -----------------------------------------------------------------------------------

   CUMULATIVE VOLUMES               L**3   RATES FOR THIS TIME STEP           L**3/T
   ------------------                      ------------------------

                                     IN                                         IN
                                     --                                         --
        PRECIPITATION =        4.6511D+08          PRECIPITATION =                  
           STREAMFLOW =                               STREAMFLOW =                  
     GW BOUNDARY FLOW =                         GW BOUNDARY FLOW =                  


                                    OUT                                        OUT
                                    ---                                        ---
   EVAPOTRANSPIRATION =        2.9104D+08     EVAPOTRANSPIRATION =          22929.92
           STREAMFLOW =        1.7947D+08             STREAMFLOW =           6682.70
     GW BOUNDARY FLOW =        3740585.88       GW BOUNDARY FLOW =            650.41

   INFLOWS - OUTFLOWS =       -9137685.20     INFLOWS - OUTFLOWS =         -30263.03
             --------                                   --------

 TOTAL STORAGE CHANGE =       -9009693.70         STORAGE CHANGE =         -30280.08
       --------------                             --------------
         LAND SURFACE =          65114.44           LAND SURFACE =          -2708.07
            SOIL ZONE =         140260.96              SOIL ZONE =          -6874.90
     UNSATURATED ZONE =        5419176.10       UNSATURATED ZONE =         -25477.94
       SATURATED ZONE =       -1.4634D+07         SATURATED ZONE =           4780.82

 OVERALL BUDGET ERROR =        -127991.49           BUDGET ERROR =             17.05


  PERCENT DISCREPANCY =             -0.03    PERCENT DISCREPANCY =              0.06



1
 SUMMARY VOLUMETRIC BUDGET FOR GSFLOW 
 DATE: 08 06 1996              CUMULATIVE TIME STEP:    5789
 MODFLOW STRESS PERIOD      2     CURRENT TIME STEP:    5789     ITERATIONS:      25

 -----------------------------------------------------------------------------------

   CUMULATIVE VOLUMES               L**3   RATES FOR THIS TIME STEP           L**3/T
   ------------------                      ------------------------

                                     IN                                         IN
                                     --                                         --
        PRECIPITATION =        4.6511D+08          PRECIPITATION =                  
           STREAMFLOW =                               STREAMFLOW =                  
     GW BOUNDARY FLOW =                         GW BOUNDARY FLOW =                  


                                    OUT                                        OUT
                                    ---                                        ---
   EVAPOTRANSPIRATION =        2.9117D+08     EVAPOTRANSPIRATION =          15647.63
           STREAMFLOW =        1.7952D+08             STREAMFLOW =           6488.14
     GW BOUNDARY FLOW =        3745138.64       GW BOUNDARY FLOW =            650.36

   INFLOWS - OUTFLOWS =       -9320348.42     INFLOWS - OUTFLOWS =         -22786.13
             --------                                   --------

 TOTAL STORAGE CHANGE =       -9192414.23         STORAGE CHANGE =         -22772.95
       --------------                             --------------
         LAND SURFACE =          50440.94           LAND SURFACE =          -1837.48
            SOIL ZONE =         115856.92              SOIL ZONE =           -560.43
     UNSATURATED ZONE =        5245515.86       UNSATURATED ZONE =         -24535.07
       SATURATED ZONE =       -1.4604D+07         SATURATED ZONE =           4160.03

 OVERALL BUDGET ERROR =        -127934.19           BUDGET ERROR =            -13.18


  PERCENT DISCREPANCY =             -0.03    PERCENT DISCREPANCY =             -0.06



1
 SUMMARY VOLUMETRIC BUDGET FOR GSFLOW 
 DATE: 08 13 1996              CUMULATIVE TIME STEP:    5796
 MODFLOW STRESS PERIOD      2     CURRENT TIME STEP:    5796     ITERATIONS:      13

 -----------------------------------------------------------------------------------

   CUMULATIVE VOLUMES               L**3   RATES FOR THIS TIME STEP           L**3/T
   ------------------                      ------------------------

                                     IN                                         IN
                                     --                                         --
        PRECIPITATION =        4.6531D+08          PRECIPITATION =          54456.73
           STREAMFLOW =                               STREAMFLOW =                  
     GW BOUNDARY FLOW =                         GW BOUNDARY FLOW =                  


                                    OUT                                        OUT
                                    ---                                        ---
   EVAPOTRANSPIRATION =        2.9133D+08     EVAPOTRANSPIRATION =          31967.56
           STREAMFLOW =        1.7957D+08             STREAMFLOW =           7681.89
     GW BOUNDARY FLOW =        3749690.72       GW BOUNDARY FLOW =            650.32

   INFLOWS - OUTFLOWS =       -9337384.21     INFLOWS - OUTFLOWS =          14156.96
             --------                                   --------

 TOTAL STORAGE CHANGE =       -9209539.41         STORAGE CHANGE =          14138.22
       --------------                             --------------
         LAND SURFACE =          69849.84           LAND SURFACE =          -1955.37
            SOIL ZONE =         220671.61              SOIL ZONE =          36103.12
     UNSATURATED ZONE =        5078618.69       UNSATURATED ZONE =         -23438.88
       SATURATED ZONE =       -1.4579D+07         SATURATED ZONE =           3429.35

 OVERALL BUDGET ERROR =        -127844.80           BUDGET ERROR =             18.73


  PERCENT DISCREPANCY =             -0.03    PERCENT DISCREPANCY =              0.03



1
 SUMMARY VOLUMETRIC BUDGET FOR GSFLOW 
 DATE: 08 20 1996              CUMULATIVE TIME STEP:    5803
 MODFLOW STRESS PERIOD      2     CURRENT TIME STEP:    5803     ITERATIONS:      15

 -----------------------------------------------------------------------------------

   CUMULATIVE VOLUMES               L**3   RATES FOR THIS TIME STEP           L**3/T
   ------------------                      ------------------------

                                     IN                                         IN
                                     --                                         --
        PRECIPITATION =        4.6531D+08          PRECIPITATION =                  
           STREAMFLOW =                               STREAMFLOW =                  
     GW BOUNDARY FLOW =                         GW BOUNDARY FLOW =                  


                                    OUT                                        OUT
                                    ---                                        ---
   EVAPOTRANSPIRATION =        2.9153D+08     EVAPOTRANSPIRATION =          16581.98
           STREAMFLOW =        1.7961D+08             STREAMFLOW =           6299.02
     GW BOUNDARY FLOW =        3754241.35       GW BOUNDARY FLOW =            649.92

   INFLOWS - OUTFLOWS =       -9581924.18     INFLOWS - OUTFLOWS =         -23530.92
             --------                                   --------

 TOTAL STORAGE CHANGE =       -9453881.50         STORAGE CHANGE =         -23539.10
       --------------                             --------------
         LAND SURFACE =          25191.11           LAND SURFACE =          -1160.47
            SOIL ZONE =         160643.76              SOIL ZONE =          -2495.26
     UNSATURATED ZONE =        4919572.17       UNSATURATED ZONE =         -22304.39
       SATURATED ZONE =       -1.4559D+07         SATURATED ZONE =           2421.03

 OVERALL BUDGET ERROR =        -128042.67           BUDGET ERROR =              8.18


  PERCENT DISCREPANCY =             -0.03    PERCENT DISCREPANCY =              0.03



1
 SUMMARY VOLUMETRIC BUDGET FOR GSFLOW 
 DATE: 08 27 1996              CUMULATIVE TIME STEP:    5810
 MODFLOW STRESS PERIOD      2     CURRENT TIME STEP:    5810     ITERATIONS:      13

 -----------------------------------------------------------------------------------

   CUMULATIVE VOLUMES               L**3   RATES FOR THIS TIME STEP           L**3/T
   ------------------                      ------------------------

                                     IN                                         IN
                                     --                                         --
        PRECIPITATION =        4.6531D+08          PRECIPITATION =                  
           STREAMFLOW =                               STREAMFLOW =                  
     GW BOUNDARY FLOW =                         GW BOUNDARY FLOW =                  


                                    OUT                                        OUT
                                    ---                                        ---
   EVAPOTRANSPIRATION =        2.9167D+08     EVAPOTRANSPIRATION =          14989.39
           STREAMFLOW =        1.7966D+08             STREAMFLOW =           6149.62
     GW BOUNDARY FLOW =        3758789.25       GW BOUNDARY FLOW =            649.54

   INFLOWS - OUTFLOWS =       -9768155.71     INFLOWS - OUTFLOWS =         -21788.55
             --------                                   --------

 TOTAL STORAGE CHANGE =       -9640190.74         STORAGE CHANGE =         -21792.84
       --------------                             --------------
         LAND SURFACE =          15844.22           LAND SURFACE =          -1087.49
            SOIL ZONE =         121921.44              SOIL ZONE =          -1064.07
     UNSATURATED ZONE =        4768821.61       UNSATURATED ZONE =         -21021.64
       SATURATED ZONE =       -1.4547D+07         SATURATED ZONE =           1380.36

 OVERALL BUDGET ERROR =        -127964.97           BUDGET ERROR =              4.29


  PERCENT DISCREPANCY =             -0.03    PERCENT DISCREPANCY =              0.02



1
 SUMMARY VOLUMETRIC BUDGET FOR GSFLOW 
 DATE: 09 03 1996              CUMULATIVE TIME STEP:    5817
 MODFLOW STRESS PERIOD      2     CURRENT TIME STEP:    5817     ITERATIONS:      12

 -----------------------------------------------------------------------------------

   CUMULATIVE VOLUMES               L**3   RATES FOR THIS TIME STEP           L**3/T
   ------------------                      ------------------------

                                     IN                                         IN
                                     --                                         --
        PRECIPITATION =        4.6531D+08          PRECIPITATION =                  
           STREAMFLOW =                               STREAMFLOW =                  
     GW BOUNDARY FLOW =                         GW BOUNDARY FLOW =                  


                                    OUT                                        OUT
                                    ---                                        ---
   EVAPOTRANSPIRATION =        2.9177D+08     EVAPOTRANSPIRATION =          12856.56
           STREAMFLOW =        1.7970D+08             STREAMFLOW =           6046.20
     GW BOUNDARY FLOW =        3763334.42       GW BOUNDARY FLOW =            649.15

   INFLOWS - OUTFLOWS =       -9920896.64     INFLOWS - OUTFLOWS =         -19551.91
             --------                                   --------

 TOTAL STORAGE CHANGE =       -9793075.89         STORAGE CHANGE =         -19571.96
       --------------                             --------------
         LAND SURFACE =           8785.88           LAND SURFACE =           -757.18
            SOIL ZONE =         112801.11              SOIL ZONE =            620.48
     UNSATURATED ZONE =        4624818.86       UNSATURATED ZONE =         -20314.61
       SATURATED ZONE =       -1.4539D+07         SATURATED ZONE =            879.35

 OVERALL BUDGET ERROR =        -127820.75           BUDGET ERROR =             20.05


  PERCENT DISCREPANCY =             -0.03    PERCENT DISCREPANCY =              0.10



1
 SUMMARY VOLUMETRIC BUDGET FOR GSFLOW 
 DATE: 09 10 1996              CUMULATIVE TIME STEP:    5824
 MODFLOW STRESS PERIOD      2     CURRENT TIME STEP:    5824     ITERATIONS:      12

 -----------------------------------------------------------------------------------

   CUMULATIVE VOLUMES               L**3   RATES FOR THIS TIME STEP           L**3/T
   ------------------                      ------------------------

                                     IN                                         IN
                                     --                                         --
        PRECIPITATION =        4.6531D+08          PRECIPITATION =                  
           STREAMFLOW =                               STREAMFLOW =                  
     GW BOUNDARY FLOW =                         GW BOUNDARY FLOW =                  


                                    OUT                                        OUT
                                    ---                                        ---
   EVAPOTRANSPIRATION =        2.9186D+08     EVAPOTRANSPIRATION =          14391.42
           STREAMFLOW =        1.7974D+08             STREAMFLOW =           5951.10
     GW BOUNDARY FLOW =        3767876.90       GW BOUNDARY FLOW =            648.76

   INFLOWS - OUTFLOWS =       -1.0053D+07     INFLOWS - OUTFLOWS =         -20991.28
             --------                                   --------

 TOTAL STORAGE CHANGE =       -9925428.56         STORAGE CHANGE =         -21018.82
       --------------                             --------------
         LAND SURFACE =           4387.93           LAND SURFACE =           -638.64
            SOIL ZONE =         120064.49              SOIL ZONE =          -1151.65
     UNSATURATED ZONE =        4483378.30       UNSATURATED ZONE =         -19986.99
       SATURATED ZONE =       -1.4533D+07         SATURATED ZONE =            758.47

 OVERALL BUDGET ERROR =        -127647.76           BUDGET ERROR =             27.54


  PERCENT DISCREPANCY =             -0.03    PERCENT DISCREPANCY =              0.13



1
 SUMMARY VOLUMETRIC BUDGET FOR GSFLOW 
 DATE: 09 17 1996              CUMULATIVE TIME STEP:    5831
 MODFLOW STRESS PERIOD      2     CURRENT TIME STEP:    5831     ITERATIONS:      12

 -----------------------------------------------------------------------------------

   CUMULATIVE VOLUMES               L**3   RATES FOR THIS TIME STEP           L**3/T
   ------------------                      ------------------------

                                     IN                                         IN
                                     --                                         --
        PRECIPITATION =        4.6637D+08          PRECIPITATION =                  
           STREAMFLOW =                               STREAMFLOW =                  
     GW BOUNDARY FLOW =                         GW BOUNDARY FLOW =                  


                                    OUT                                        OUT
                                    ---                                        ---
   EVAPOTRANSPIRATION =        2.9206D+08     EVAPOTRANSPIRATION =          74571.48
           STREAMFLOW =        1.7980D+08             STREAMFLOW =           9958.83
     GW BOUNDARY FLOW =        3772418.71       GW BOUNDARY FLOW =            649.15

   INFLOWS - OUTFLOWS =       -9273834.77     INFLOWS - OUTFLOWS =         -85179.46
             --------                                   --------

 TOTAL STORAGE CHANGE =       -9146345.89         STORAGE CHANGE =         -85192.56
       --------------                             --------------
         LAND SURFACE =            389.08           LAND SURFACE =         -38055.26
            SOIL ZONE =        1034681.15              SOIL ZONE =         -28117.90
     UNSATURATED ZONE =        4346609.49       UNSATURATED ZONE =         -19133.22
       SATURATED ZONE =       -1.4528D+07         SATURATED ZONE =            113.83

 OVERALL BUDGET ERROR =        -127488.88           BUDGET ERROR =             13.10


  PERCENT DISCREPANCY =             -0.03    PERCENT DISCREPANCY =              0.02



1
 SUMMARY VOLUMETRIC BUDGET FOR GSFLOW 
 DATE: 09 24 1996              CUMULATIVE TIME STEP:    5838
 MODFLOW STRESS PERIOD      2     CURRENT TIME STEP:    5838     ITERATIONS:      12

 -----------------------------------------------------------------------------------

   CUMULATIVE VOLUMES               L**3   RATES FOR THIS TIME STEP           L**3/T
   ------------------                      ------------------------

                                     IN                                         IN
                                     --                                         --
        PRECIPITATION =        4.6637D+08          PRECIPITATION =                  
           STREAMFLOW =                               STREAMFLOW =                  
     GW BOUNDARY FLOW =                         GW BOUNDARY FLOW =                  


                                    OUT                                        OUT
                                    ---                                        ---
   EVAPOTRANSPIRATION =        2.9257D+08     EVAPOTRANSPIRATION =          50320.93
           STREAMFLOW =        1.7986D+08             STREAMFLOW =           6282.12
     GW BOUNDARY FLOW =        3776958.75       GW BOUNDARY FLOW =            648.24

   INFLOWS - OUTFLOWS =       -9834601.86     INFLOWS - OUTFLOWS =         -57251.30
             --------                                   --------

 TOTAL STORAGE CHANGE =       -9707283.91         STORAGE CHANGE =         -57273.75
       --------------                             --------------
         LAND SURFACE =                             LAND SURFACE =                  
            SOIL ZONE =         606755.82              SOIL ZONE =         -38425.44
     UNSATURATED ZONE =        4215746.10       UNSATURATED ZONE =         -18467.52
       SATURATED ZONE =       -1.4530D+07         SATURATED ZONE =           -380.79

 OVERALL BUDGET ERROR =        -127317.95           BUDGET ERROR =             22.45


  PERCENT DISCREPANCY =             -0.03    PERCENT DISCREPANCY =              0.04



