1
 SUMMARY VOLUMETRIC BUDGET FOR GSFLOW 
 DATE: 10 07 1980              CUMULATIVE TIME STEP:       7
 MODFLOW STRESS PERIOD      2     CURRENT TIME STEP:       7     ITERATIONS:       6

 -----------------------------------------------------------------------------------

   CUMULATIVE VOLUMES               L**3   RATES FOR THIS TIME STEP           L**3/T
   ------------------                      ------------------------

                                     IN                                         IN
                                     --                                         --
        PRECIPITATION =                            PRECIPITATION =                  
           STREAMFLOW =                               STREAMFLOW =                  
     GW BOUNDARY FLOW =                         GW BOUNDARY FLOW =                  


                                    OUT                                        OUT
                                    ---                                        ---
   EVAPOTRANSPIRATION =          63502.38     EVAPOTRANSPIRATION =           9679.51
           STREAMFLOW =          42957.63             STREAMFLOW =           6065.77
     GW BOUNDARY FLOW =           4541.44       GW BOUNDARY FLOW =            648.70

   INFLOWS - OUTFLOWS =        -111001.44     INFLOWS - OUTFLOWS =         -16393.99
             --------                                   --------

 TOTAL STORAGE CHANGE =        -110545.66         STORAGE CHANGE =         -16325.67
       --------------                             --------------
         LAND SURFACE =                             LAND SURFACE =                  
            SOIL ZONE =          47014.67              SOIL ZONE =           6016.91
     UNSATURATED ZONE =        -144777.37       UNSATURATED ZONE =         -20360.11
       SATURATED ZONE =         -12782.96         SATURATED ZONE =          -1982.46

 OVERALL BUDGET ERROR =           -455.78           BUDGET ERROR =            -68.32


  PERCENT DISCREPANCY =             -0.41    PERCENT DISCREPANCY =             -0.42



1
 SUMMARY VOLUMETRIC BUDGET FOR GSFLOW 
 DATE: 10 14 1980              CUMULATIVE TIME STEP:      14
 MODFLOW STRESS PERIOD      2     CURRENT TIME STEP:      14     ITERATIONS:       6

 -----------------------------------------------------------------------------------

   CUMULATIVE VOLUMES               L**3   RATES FOR THIS TIME STEP           L**3/T
   ------------------                      ------------------------

                                     IN                                         IN
                                     --                                         --
        PRECIPITATION =         650780.39          PRECIPITATION =         164754.68
           STREAMFLOW =                               STREAMFLOW =                  
     GW BOUNDARY FLOW =                         GW BOUNDARY FLOW =                  


                                    OUT                                        OUT
                                    ---                                        ---
   EVAPOTRANSPIRATION =         147659.88     EVAPOTRANSPIRATION =           7975.76
           STREAMFLOW =          92677.73             STREAMFLOW =           7494.70
     GW BOUNDARY FLOW =           9082.78       GW BOUNDARY FLOW =            648.89

   INFLOWS - OUTFLOWS =         401360.00     INFLOWS - OUTFLOWS =         148635.32
             --------                                   --------

 TOTAL STORAGE CHANGE =         402330.52         STORAGE CHANGE =         148709.32
       --------------                             --------------
         LAND SURFACE =         277680.20           LAND SURFACE =         136619.69
            SOIL ZONE =         436777.17              SOIL ZONE =          34107.48
     UNSATURATED ZONE =        -284452.37       UNSATURATED ZONE =         -19623.49
       SATURATED ZONE =         -27674.48         SATURATED ZONE =          -2394.36

 OVERALL BUDGET ERROR =           -970.51           BUDGET ERROR =            -74.00


  PERCENT DISCREPANCY =             -0.15    PERCENT DISCREPANCY =             -0.04



1
 SUMMARY VOLUMETRIC BUDGET FOR GSFLOW 
 DATE: 10 21 1980              CUMULATIVE TIME STEP:      21
 MODFLOW STRESS PERIOD      2     CURRENT TIME STEP:      21     ITERATIONS:       6

 -----------------------------------------------------------------------------------

   CUMULATIVE VOLUMES               L**3   RATES FOR THIS TIME STEP           L**3/T
   ------------------                      ------------------------

                                     IN                                         IN
                                     --                                         --
        PRECIPITATION =         733156.23          PRECIPITATION =                  
           STREAMFLOW =                               STREAMFLOW =                  
     GW BOUNDARY FLOW =                         GW BOUNDARY FLOW =                  


                                    OUT                                        OUT
                                    ---                                        ---
   EVAPOTRANSPIRATION =         376397.63     EVAPOTRANSPIRATION =          37106.86
           STREAMFLOW =         144890.95             STREAMFLOW =           7105.98
     GW BOUNDARY FLOW =          13624.56       GW BOUNDARY FLOW =            648.77

   INFLOWS - OUTFLOWS =         198243.09     INFLOWS - OUTFLOWS =         -44861.61
             --------                                   --------

 TOTAL STORAGE CHANGE =         199724.30         STORAGE CHANGE =         -44780.96
       --------------                             --------------
         LAND SURFACE =           2252.39           LAND SURFACE =          -3155.26
            SOIL ZONE =         662439.07              SOIL ZONE =         -19833.87
     UNSATURATED ZONE =        -418622.14       UNSATURATED ZONE =         -18801.02
       SATURATED ZONE =         -46345.02         SATURATED ZONE =          -2990.81

 OVERALL BUDGET ERROR =          -1481.21           BUDGET ERROR =            -80.65


  PERCENT DISCREPANCY =             -0.20    PERCENT DISCREPANCY =             -0.18



1
 SUMMARY VOLUMETRIC BUDGET FOR GSFLOW 
 DATE: 10 28 1980              CUMULATIVE TIME STEP:      28
 MODFLOW STRESS PERIOD      2     CURRENT TIME STEP:      28     ITERATIONS:       6

 -----------------------------------------------------------------------------------

   CUMULATIVE VOLUMES               L**3   RATES FOR THIS TIME STEP           L**3/T
   ------------------                      ------------------------

                                     IN                                         IN
                                     --                                         --
        PRECIPITATION =        1070899.96          PRECIPITATION =                  
           STREAMFLOW =                               STREAMFLOW =                  
     GW BOUNDARY FLOW =                         GW BOUNDARY FLOW =                  


                                    OUT                                        OUT
                                    ---                                        ---
   EVAPOTRANSPIRATION =         557225.23     EVAPOTRANSPIRATION =          23594.69
           STREAMFLOW =         199841.36             STREAMFLOW =           7989.31
     GW BOUNDARY FLOW =          18165.91       GW BOUNDARY FLOW =            648.81

   INFLOWS - OUTFLOWS =         295667.46     INFLOWS - OUTFLOWS =         -32232.80
             --------                                   --------

 TOTAL STORAGE CHANGE =         297720.23         STORAGE CHANGE =         -32145.86
       --------------                             --------------
         LAND SURFACE =          24622.16           LAND SURFACE =         -30947.62
            SOIL ZONE =         889240.30              SOIL ZONE =          20269.34
     UNSATURATED ZONE =        -547225.26       UNSATURATED ZONE =         -17994.12
       SATURATED ZONE =         -68916.98         SATURATED ZONE =          -3473.45

 OVERALL BUDGET ERROR =          -2052.77           BUDGET ERROR =            -86.95


  PERCENT DISCREPANCY =             -0.19    PERCENT DISCREPANCY =             -0.27



1
 SUMMARY VOLUMETRIC BUDGET FOR GSFLOW 
 DATE: 11 04 1980              CUMULATIVE TIME STEP:      35
 MODFLOW STRESS PERIOD      2     CURRENT TIME STEP:      35     ITERATIONS:       8

 -----------------------------------------------------------------------------------

   CUMULATIVE VOLUMES               L**3   RATES FOR THIS TIME STEP           L**3/T
   ------------------                      ------------------------

                                     IN                                         IN
                                     --                                         --
        PRECIPITATION =        1070899.96          PRECIPITATION =                  
           STREAMFLOW =                               STREAMFLOW =                  
     GW BOUNDARY FLOW =                         GW BOUNDARY FLOW =                  


                                    OUT                                        OUT
                                    ---                                        ---
   EVAPOTRANSPIRATION =         854957.50     EVAPOTRANSPIRATION =          38437.42
           STREAMFLOW =         252309.21             STREAMFLOW =           7018.30
     GW BOUNDARY FLOW =          22706.92       GW BOUNDARY FLOW =            648.64

   INFLOWS - OUTFLOWS =         -59073.67     INFLOWS - OUTFLOWS =         -46104.36
             --------                                   --------

 TOTAL STORAGE CHANGE =         -56530.77         STORAGE CHANGE =         -46042.34
       --------------                             --------------
         LAND SURFACE =                             LAND SURFACE =                  
            SOIL ZONE =         710226.16              SOIL ZONE =         -24516.35
     UNSATURATED ZONE =        -670653.07       UNSATURATED ZONE =         -17361.09
       SATURATED ZONE =         -96103.86         SATURATED ZONE =          -4164.90

 OVERALL BUDGET ERROR =          -2542.89           BUDGET ERROR =            -62.02


  PERCENT DISCREPANCY =             -0.23    PERCENT DISCREPANCY =             -0.13



1
 SUMMARY VOLUMETRIC BUDGET FOR GSFLOW 
 DATE: 11 11 1980              CUMULATIVE TIME STEP:      42
 MODFLOW STRESS PERIOD      2     CURRENT TIME STEP:      42     ITERATIONS:       7

 -----------------------------------------------------------------------------------

   CUMULATIVE VOLUMES               L**3   RATES FOR THIS TIME STEP           L**3/T
   ------------------                      ------------------------

                                     IN                                         IN
                                     --                                         --
        PRECIPITATION =        1573759.34          PRECIPITATION =         255182.10
           STREAMFLOW =                               STREAMFLOW =                  
     GW BOUNDARY FLOW =                         GW BOUNDARY FLOW =                  


                                    OUT                                        OUT
                                    ---                                        ---
   EVAPOTRANSPIRATION =        1066446.54     EVAPOTRANSPIRATION =          14941.33
           STREAMFLOW =         308277.50             STREAMFLOW =          10769.42
     GW BOUNDARY FLOW =          27247.64       GW BOUNDARY FLOW =            648.84

   INFLOWS - OUTFLOWS =         171787.66     INFLOWS - OUTFLOWS =         228822.51
             --------                                   --------

 TOTAL STORAGE CHANGE =         174876.59         STORAGE CHANGE =         228887.71
       --------------                             --------------
         LAND SURFACE =          78611.70           LAND SURFACE =          76658.21
            SOIL ZONE =        1011571.48              SOIL ZONE =         172853.10
     UNSATURATED ZONE =        -789255.03       UNSATURATED ZONE =         -16535.00
       SATURATED ZONE =        -126051.56         SATURATED ZONE =          -4088.60

 OVERALL BUDGET ERROR =          -3088.94           BUDGET ERROR =            -65.21


  PERCENT DISCREPANCY =             -0.20    PERCENT DISCREPANCY =             -0.03



1
 SUMMARY VOLUMETRIC BUDGET FOR GSFLOW 
 DATE: 11 18 1980              CUMULATIVE TIME STEP:      49
 MODFLOW STRESS PERIOD      2     CURRENT TIME STEP:      49     ITERATIONS:       6

 -----------------------------------------------------------------------------------

   CUMULATIVE VOLUMES               L**3   RATES FOR THIS TIME STEP           L**3/T
   ------------------                      ------------------------

                                     IN                                         IN
                                     --                                         --
        PRECIPITATION =        1573759.34          PRECIPITATION =                  
           STREAMFLOW =                               STREAMFLOW =                  
     GW BOUNDARY FLOW =                         GW BOUNDARY FLOW =                  


                                    OUT                                        OUT
                                    ---                                        ---
   EVAPOTRANSPIRATION =        1154907.87     EVAPOTRANSPIRATION =          16640.29
           STREAMFLOW =         371182.09             STREAMFLOW =           9356.88
     GW BOUNDARY FLOW =          31789.52       GW BOUNDARY FLOW =            648.86

   INFLOWS - OUTFLOWS =          15879.86     INFLOWS - OUTFLOWS =         -26646.04
             --------                                   --------

 TOTAL STORAGE CHANGE =          19602.21         STORAGE CHANGE =         -26545.89
       --------------                             --------------
         LAND SURFACE =           8650.47           LAND SURFACE =          -6201.94
            SOIL ZONE =        1072803.82              SOIL ZONE =            474.83
     UNSATURATED ZONE =        -903178.01       UNSATURATED ZONE =         -16031.61
       SATURATED ZONE =        -158674.07         SATURATED ZONE =          -4787.17

 OVERALL BUDGET ERROR =          -3722.35           BUDGET ERROR =           -100.15


  PERCENT DISCREPANCY =             -0.24    PERCENT DISCREPANCY =             -0.38



1
 SUMMARY VOLUMETRIC BUDGET FOR GSFLOW 
 DATE: 11 25 1980              CUMULATIVE TIME STEP:      56
 MODFLOW STRESS PERIOD      2     CURRENT TIME STEP:      56     ITERATIONS:       8

 -----------------------------------------------------------------------------------

   CUMULATIVE VOLUMES               L**3   RATES FOR THIS TIME STEP           L**3/T
   ------------------                      ------------------------

                                     IN                                         IN
                                     --                                         --
        PRECIPITATION =        1648813.76          PRECIPITATION =                  
           STREAMFLOW =                               STREAMFLOW =                  
     GW BOUNDARY FLOW =                         GW BOUNDARY FLOW =                  


                                    OUT                                        OUT
                                    ---                                        ---
   EVAPOTRANSPIRATION =        1230200.42     EVAPOTRANSPIRATION =           8792.89
           STREAMFLOW =         438363.95             STREAMFLOW =           9949.23
     GW BOUNDARY FLOW =          36331.80       GW BOUNDARY FLOW =            648.93

   INFLOWS - OUTFLOWS =         -56082.41     INFLOWS - OUTFLOWS =         -19391.05
             --------                                   --------

 TOTAL STORAGE CHANGE =         -51807.31         STORAGE CHANGE =         -19326.94
       --------------                             --------------
         LAND SURFACE =          55166.56           LAND SURFACE =          -8744.72
            SOIL ZONE =        1100541.29              SOIL ZONE =          10159.73
     UNSATURATED ZONE =       -1012811.27       UNSATURATED ZONE =         -15403.94
       SATURATED ZONE =        -194703.90         SATURATED ZONE =          -5338.00

 OVERALL BUDGET ERROR =          -4275.09           BUDGET ERROR =            -64.11


  PERCENT DISCREPANCY =             -0.25    PERCENT DISCREPANCY =             -0.33



1
 SUMMARY VOLUMETRIC BUDGET FOR GSFLOW 
 DATE: 12 02 1980              CUMULATIVE TIME STEP:      63
 MODFLOW STRESS PERIOD      2     CURRENT TIME STEP:      63     ITERATIONS:       8

 -----------------------------------------------------------------------------------

   CUMULATIVE VOLUMES               L**3   RATES FOR THIS TIME STEP           L**3/T
   ------------------                      ------------------------

                                     IN                                         IN
                                     --                                         --
        PRECIPITATION =        2076620.74          PRECIPITATION =                  
           STREAMFLOW =                               STREAMFLOW =                  
     GW BOUNDARY FLOW =                         GW BOUNDARY FLOW =                  


                                    OUT                                        OUT
                                    ---                                        ---
   EVAPOTRANSPIRATION =        1423641.10     EVAPOTRANSPIRATION =          34188.83
           STREAMFLOW =         523312.06             STREAMFLOW =          15235.36
     GW BOUNDARY FLOW =          40875.74       GW BOUNDARY FLOW =            649.44

   INFLOWS - OUTFLOWS =          88791.84     INFLOWS - OUTFLOWS =         -50073.63
             --------                                   --------

 TOTAL STORAGE CHANGE =          93498.14         STORAGE CHANGE =         -50018.41
       --------------                             --------------
         LAND SURFACE =         152558.40           LAND SURFACE =         -75202.38
            SOIL ZONE =        1286007.31              SOIL ZONE =          42854.45
     UNSATURATED ZONE =       -1114354.98       UNSATURATED ZONE =         -13043.81
       SATURATED ZONE =        -230712.59         SATURATED ZONE =          -4626.68

 OVERALL BUDGET ERROR =          -4706.31           BUDGET ERROR =            -55.23


  PERCENT DISCREPANCY =             -0.23    PERCENT DISCREPANCY =             -0.11



1
 SUMMARY VOLUMETRIC BUDGET FOR GSFLOW 
 DATE: 12 09 1980              CUMULATIVE TIME STEP:      70
 MODFLOW STRESS PERIOD      2     CURRENT TIME STEP:      70     ITERATIONS:       8

 -----------------------------------------------------------------------------------

   CUMULATIVE VOLUMES               L**3   RATES FOR THIS TIME STEP           L**3/T
   ------------------                      ------------------------

                                     IN                                         IN
                                     --                                         --
        PRECIPITATION =        4284363.13          PRECIPITATION =                  
           STREAMFLOW =                               STREAMFLOW =                  
     GW BOUNDARY FLOW =                         GW BOUNDARY FLOW =                  


                                    OUT                                        OUT
                                    ---                                        ---
   EVAPOTRANSPIRATION =        1447059.74     EVAPOTRANSPIRATION =           2942.37
           STREAMFLOW =         622580.82             STREAMFLOW =          14459.88
     GW BOUNDARY FLOW =          45422.60       GW BOUNDARY FLOW =            649.64

   INFLOWS - OUTFLOWS =        2169299.97     INFLOWS - OUTFLOWS =         -18051.90
             --------                                   --------

 TOTAL STORAGE CHANGE =        2174480.43         STORAGE CHANGE =         -18003.78
       --------------                             --------------
         LAND SURFACE =        2335225.13           LAND SURFACE =          -2942.37
            SOIL ZONE =        1321838.95              SOIL ZONE =           5169.39
     UNSATURATED ZONE =       -1212717.07       UNSATURATED ZONE =         -14219.87
       SATURATED ZONE =        -269866.58         SATURATED ZONE =          -6010.93

 OVERALL BUDGET ERROR =          -5180.46           BUDGET ERROR =            -48.11


  PERCENT DISCREPANCY =             -0.12    PERCENT DISCREPANCY =             -0.27



1
 SUMMARY VOLUMETRIC BUDGET FOR GSFLOW 
 DATE: 12 16 1980              CUMULATIVE TIME STEP:      77
 MODFLOW STRESS PERIOD      2     CURRENT TIME STEP:      77     ITERATIONS:       7

 -----------------------------------------------------------------------------------

   CUMULATIVE VOLUMES               L**3   RATES FOR THIS TIME STEP           L**3/T
   ------------------                      ------------------------

                                     IN                                         IN
                                     --                                         --
        PRECIPITATION =        4284363.13          PRECIPITATION =                  
           STREAMFLOW =                               STREAMFLOW =                  
     GW BOUNDARY FLOW =                         GW BOUNDARY FLOW =                  


                                    OUT                                        OUT
                                    ---                                        ---
   EVAPOTRANSPIRATION =        1589059.35     EVAPOTRANSPIRATION =          33888.91
           STREAMFLOW =         742122.70             STREAMFLOW =          24743.94
     GW BOUNDARY FLOW =          49971.18       GW BOUNDARY FLOW =            650.23

   INFLOWS - OUTFLOWS =        1903209.90     INFLOWS - OUTFLOWS =         -59283.08
             --------                                   --------

 TOTAL STORAGE CHANGE =        1908817.60         STORAGE CHANGE =         -59212.81
       --------------                             --------------
         LAND SURFACE =        2023963.99           LAND SURFACE =        -129017.63
            SOIL ZONE =        1498052.01              SOIL ZONE =          83497.78
     UNSATURATED ZONE =       -1302769.98       UNSATURATED ZONE =          -9208.44
       SATURATED ZONE =        -310428.42         SATURATED ZONE =          -4484.52

 OVERALL BUDGET ERROR =          -5607.70           BUDGET ERROR =            -70.28


  PERCENT DISCREPANCY =             -0.13    PERCENT DISCREPANCY =             -0.12



1
 SUMMARY VOLUMETRIC BUDGET FOR GSFLOW 
 DATE: 12 23 1980              CUMULATIVE TIME STEP:      84
 MODFLOW STRESS PERIOD      2     CURRENT TIME STEP:      84     ITERATIONS:       9

 -----------------------------------------------------------------------------------

   CUMULATIVE VOLUMES               L**3   RATES FOR THIS TIME STEP           L**3/T
   ------------------                      ------------------------

                                     IN                                         IN
                                     --                                         --
        PRECIPITATION =        4516755.31          PRECIPITATION =                  
           STREAMFLOW =                               STREAMFLOW =                  
     GW BOUNDARY FLOW =                         GW BOUNDARY FLOW =                  


                                    OUT                                        OUT
                                    ---                                        ---
   EVAPOTRANSPIRATION =        1795069.54     EVAPOTRANSPIRATION =          35140.80
           STREAMFLOW =         968058.06             STREAMFLOW =          30100.51
     GW BOUNDARY FLOW =          54531.42       GW BOUNDARY FLOW =            651.90

   INFLOWS - OUTFLOWS =        1699096.28     INFLOWS - OUTFLOWS =         -65893.21
             --------                                   --------

 TOTAL STORAGE CHANGE =        1705015.01         STORAGE CHANGE =         -65859.17
       --------------                             --------------
         LAND SURFACE =        1432191.80           LAND SURFACE =         -48138.66
            SOIL ZONE =        1958079.75              SOIL ZONE =          -6699.26
     UNSATURATED ZONE =       -1346303.63       UNSATURATED ZONE =          -6281.21
       SATURATED ZONE =        -338952.92         SATURATED ZONE =          -4740.04

 OVERALL BUDGET ERROR =          -5918.72           BUDGET ERROR =            -34.04


  PERCENT DISCREPANCY =             -0.13    PERCENT DISCREPANCY =             -0.05



1
 SUMMARY VOLUMETRIC BUDGET FOR GSFLOW 
 DATE: 12 30 1980              CUMULATIVE TIME STEP:      91
 MODFLOW STRESS PERIOD      2     CURRENT TIME STEP:      91     ITERATIONS:       9

 -----------------------------------------------------------------------------------

   CUMULATIVE VOLUMES               L**3   RATES FOR THIS TIME STEP           L**3/T
   ------------------                      ------------------------

                                     IN                                         IN
                                     --                                         --
        PRECIPITATION =        4516755.31          PRECIPITATION =                  
           STREAMFLOW =                               STREAMFLOW =                  
     GW BOUNDARY FLOW =                         GW BOUNDARY FLOW =                  


                                    OUT                                        OUT
                                    ---                                        ---
   EVAPOTRANSPIRATION =        2155759.93     EVAPOTRANSPIRATION =          45890.67
           STREAMFLOW =        1212001.95             STREAMFLOW =          27164.91
     GW BOUNDARY FLOW =          59097.99       GW BOUNDARY FLOW =            652.35

   INFLOWS - OUTFLOWS =        1089895.44     INFLOWS - OUTFLOWS =         -73707.93
             --------                                   --------

 TOTAL STORAGE CHANGE =        1095999.22         STORAGE CHANGE =         -73684.02
       --------------                             --------------
         LAND SURFACE =         641006.30           LAND SURFACE =         -40337.35
            SOIL ZONE =        2181834.90              SOIL ZONE =         -23753.74
     UNSATURATED ZONE =       -1361620.73       UNSATURATED ZONE =          -5209.50
       SATURATED ZONE =        -365221.25         SATURATED ZONE =          -4383.44

 OVERALL BUDGET ERROR =          -6103.77           BUDGET ERROR =            -23.91


  PERCENT DISCREPANCY =             -0.14    PERCENT DISCREPANCY =             -0.03



1
 SUMMARY VOLUMETRIC BUDGET FOR GSFLOW 
 DATE: 01 06 1981              CUMULATIVE TIME STEP:      98
 MODFLOW STRESS PERIOD      2     CURRENT TIME STEP:      98     ITERATIONS:       8

 -----------------------------------------------------------------------------------

   CUMULATIVE VOLUMES               L**3   RATES FOR THIS TIME STEP           L**3/T
   ------------------                      ------------------------

                                     IN                                         IN
                                     --                                         --
        PRECIPITATION =        5004445.82          PRECIPITATION =                  
           STREAMFLOW =                               STREAMFLOW =                  
     GW BOUNDARY FLOW =                         GW BOUNDARY FLOW =                  


                                    OUT                                        OUT
                                    ---                                        ---
   EVAPOTRANSPIRATION =        2383684.49     EVAPOTRANSPIRATION =          21388.47
           STREAMFLOW =        1365837.75             STREAMFLOW =          21178.04
     GW BOUNDARY FLOW =          63659.51       GW BOUNDARY FLOW =            651.25

   INFLOWS - OUTFLOWS =        1191264.06     INFLOWS - OUTFLOWS =         -43217.76
             --------                                   --------

 TOTAL STORAGE CHANGE =        1197585.14         STORAGE CHANGE =         -43180.83
       --------------                             --------------
         LAND SURFACE =         837061.67           LAND SURFACE =         -30417.13
            SOIL ZONE =        2192480.35              SOIL ZONE =           3033.96
     UNSATURATED ZONE =       -1428735.66       UNSATURATED ZONE =         -10079.97
       SATURATED ZONE =        -403221.21         SATURATED ZONE =          -5717.68

 OVERALL BUDGET ERROR =          -6321.08           BUDGET ERROR =            -36.93


  PERCENT DISCREPANCY =             -0.13    PERCENT DISCREPANCY =             -0.09



1
 SUMMARY VOLUMETRIC BUDGET FOR GSFLOW 
 DATE: 01 13 1981              CUMULATIVE TIME STEP:     105
 MODFLOW STRESS PERIOD      2     CURRENT TIME STEP:     105     ITERATIONS:       7

 -----------------------------------------------------------------------------------

   CUMULATIVE VOLUMES               L**3   RATES FOR THIS TIME STEP           L**3/T
   ------------------                      ------------------------

                                     IN                                         IN
                                     --                                         --
        PRECIPITATION =        5004445.82          PRECIPITATION =                  
           STREAMFLOW =                               STREAMFLOW =                  
     GW BOUNDARY FLOW =                         GW BOUNDARY FLOW =                  


                                    OUT                                        OUT
                                    ---                                        ---
   EVAPOTRANSPIRATION =        2601199.34     EVAPOTRANSPIRATION =          44454.58
           STREAMFLOW =        1513583.15             STREAMFLOW =          20001.13
     GW BOUNDARY FLOW =          68216.62       GW BOUNDARY FLOW =            650.83

   INFLOWS - OUTFLOWS =         821446.70     INFLOWS - OUTFLOWS =         -65106.55
             --------                                   --------

 TOTAL STORAGE CHANGE =         828153.73         STORAGE CHANGE =         -65045.74
       --------------                             --------------
         LAND SURFACE =         626703.68           LAND SURFACE =         -38989.03
            SOIL ZONE =        2141655.57              SOIL ZONE =         -10386.08
     UNSATURATED ZONE =       -1493721.29       UNSATURATED ZONE =          -9174.17
       SATURATED ZONE =        -446484.23         SATURATED ZONE =          -6496.46

 OVERALL BUDGET ERROR =          -6707.02           BUDGET ERROR =            -60.81


  PERCENT DISCREPANCY =             -0.13    PERCENT DISCREPANCY =             -0.09



1
 SUMMARY VOLUMETRIC BUDGET FOR GSFLOW 
 DATE: 01 20 1981              CUMULATIVE TIME STEP:     112
 MODFLOW STRESS PERIOD      2     CURRENT TIME STEP:     112     ITERATIONS:       8

 -----------------------------------------------------------------------------------

   CUMULATIVE VOLUMES               L**3   RATES FOR THIS TIME STEP           L**3/T
   ------------------                      ------------------------

                                     IN                                         IN
                                     --                                         --
        PRECIPITATION =        5170468.48          PRECIPITATION =          41503.16
           STREAMFLOW =                               STREAMFLOW =                  
     GW BOUNDARY FLOW =                         GW BOUNDARY FLOW =                  


                                    OUT                                        OUT
                                    ---                                        ---
   EVAPOTRANSPIRATION =        2883469.12     EVAPOTRANSPIRATION =          35212.06
           STREAMFLOW =        1654868.11             STREAMFLOW =          20081.26
     GW BOUNDARY FLOW =          72771.39       GW BOUNDARY FLOW =            650.64

   INFLOWS - OUTFLOWS =         559359.87     INFLOWS - OUTFLOWS =         -14440.80
             --------                                   --------

 TOTAL STORAGE CHANGE =         566396.24         STORAGE CHANGE =         -14405.56
       --------------                             --------------
         LAND SURFACE =         436309.37           LAND SURFACE =           4324.83
            SOIL ZONE =        2147575.20              SOIL ZONE =         -10132.76
     UNSATURATED ZONE =       -1526443.44       UNSATURATED ZONE =          -1922.24
       SATURATED ZONE =        -491044.89         SATURATED ZONE =          -6675.39

 OVERALL BUDGET ERROR =          -7036.37           BUDGET ERROR =            -35.24


  PERCENT DISCREPANCY =             -0.14    PERCENT DISCREPANCY =             -0.06



1
 SUMMARY VOLUMETRIC BUDGET FOR GSFLOW 
 DATE: 01 27 1981              CUMULATIVE TIME STEP:     119
 MODFLOW STRESS PERIOD      2     CURRENT TIME STEP:     119     ITERATIONS:       9

 -----------------------------------------------------------------------------------

   CUMULATIVE VOLUMES               L**3   RATES FOR THIS TIME STEP           L**3/T
   ------------------                      ------------------------

                                     IN                                         IN
                                     --                                         --
        PRECIPITATION =        8646542.90          PRECIPITATION =        2936504.96
           STREAMFLOW =                               STREAMFLOW =                  
     GW BOUNDARY FLOW =                         GW BOUNDARY FLOW =                  


                                    OUT                                        OUT
                                    ---                                        ---
   EVAPOTRANSPIRATION =        3117999.01     EVAPOTRANSPIRATION =          13121.10
           STREAMFLOW =        1800241.11             STREAMFLOW =          18659.14
     GW BOUNDARY FLOW =          77325.71       GW BOUNDARY FLOW =            650.44

   INFLOWS - OUTFLOWS =        3650977.06     INFLOWS - OUTFLOWS =        2904074.28
             --------                                   --------

 TOTAL STORAGE CHANGE =        3658161.15         STORAGE CHANGE =        2904100.69
       --------------                             --------------
         LAND SURFACE =        3540208.69           LAND SURFACE =        2923350.57
            SOIL ZONE =        2170184.22              SOIL ZONE =          -7607.19
     UNSATURATED ZONE =       -1515767.32       UNSATURATED ZONE =          -4734.52
       SATURATED ZONE =        -536464.44         SATURATED ZONE =          -6908.18

 OVERALL BUDGET ERROR =          -7184.09           BUDGET ERROR =            -26.40


  PERCENT DISCREPANCY =             -0.08    PERCENT DISCREPANCY =             -0.00



1
 SUMMARY VOLUMETRIC BUDGET FOR GSFLOW 
 DATE: 02 03 1981              CUMULATIVE TIME STEP:     126
 MODFLOW STRESS PERIOD      2     CURRENT TIME STEP:     126     ITERATIONS:       9

 -----------------------------------------------------------------------------------

   CUMULATIVE VOLUMES               L**3   RATES FOR THIS TIME STEP           L**3/T
   ------------------                      ------------------------

                                     IN                                         IN
                                     --                                         --
        PRECIPITATION =        1.1739D+07          PRECIPITATION =                  
           STREAMFLOW =                               STREAMFLOW =                  
     GW BOUNDARY FLOW =                         GW BOUNDARY FLOW =                  


                                    OUT                                        OUT
                                    ---                                        ---
   EVAPOTRANSPIRATION =        3154511.90     EVAPOTRANSPIRATION =           6975.55
           STREAMFLOW =        1926770.52             STREAMFLOW =          17968.45
     GW BOUNDARY FLOW =          81877.80       GW BOUNDARY FLOW =            650.25

   INFLOWS - OUTFLOWS =        6575537.55     INFLOWS - OUTFLOWS =         -25594.24
             --------                                   --------

 TOTAL STORAGE CHANGE =        6582952.65         STORAGE CHANGE =         -25567.85
       --------------                             --------------
         LAND SURFACE =        6595850.65           LAND SURFACE =          -6975.55
            SOIL ZONE =        2159034.42              SOIL ZONE =            453.43
     UNSATURATED ZONE =       -1583651.19       UNSATURATED ZONE =         -11336.15
       SATURATED ZONE =        -588281.22         SATURATED ZONE =          -7709.57

 OVERALL BUDGET ERROR =          -7415.10           BUDGET ERROR =            -26.39


  PERCENT DISCREPANCY =             -0.06    PERCENT DISCREPANCY =             -0.10



1
 SUMMARY VOLUMETRIC BUDGET FOR GSFLOW 
 DATE: 02 10 1981              CUMULATIVE TIME STEP:     133
 MODFLOW STRESS PERIOD      2     CURRENT TIME STEP:     133     ITERATIONS:       7

 -----------------------------------------------------------------------------------

   CUMULATIVE VOLUMES               L**3   RATES FOR THIS TIME STEP           L**3/T
   ------------------                      ------------------------

                                     IN                                         IN
                                     --                                         --
        PRECIPITATION =        1.1838D+07          PRECIPITATION =                  
           STREAMFLOW =                               STREAMFLOW =                  
     GW BOUNDARY FLOW =                         GW BOUNDARY FLOW =                  


                                    OUT                                        OUT
                                    ---                                        ---
   EVAPOTRANSPIRATION =        3279913.14     EVAPOTRANSPIRATION =          32880.24
           STREAMFLOW =        2052817.01             STREAMFLOW =          18033.55
     GW BOUNDARY FLOW =          86429.54       GW BOUNDARY FLOW =            650.24

   INFLOWS - OUTFLOWS =        6419103.54     INFLOWS - OUTFLOWS =         -51564.02
             --------                                   --------

 TOTAL STORAGE CHANGE =        6426784.19         STORAGE CHANGE =         -51490.86
       --------------                             --------------
         LAND SURFACE =        6570014.87           LAND SURFACE =         -32880.24
            SOIL ZONE =        2163248.88              SOIL ZONE =            571.68
     UNSATURATED ZONE =       -1661791.11       UNSATURATED ZONE =         -10823.93
       SATURATED ZONE =        -644688.45         SATURATED ZONE =          -8358.36

 OVERALL BUDGET ERROR =          -7680.65           BUDGET ERROR =            -73.17


  PERCENT DISCREPANCY =             -0.06    PERCENT DISCREPANCY =             -0.14



1
 SUMMARY VOLUMETRIC BUDGET FOR GSFLOW 
 DATE: 02 17 1981              CUMULATIVE TIME STEP:     140
 MODFLOW STRESS PERIOD      2     CURRENT TIME STEP:     140     ITERATIONS:      14

 -----------------------------------------------------------------------------------

   CUMULATIVE VOLUMES               L**3   RATES FOR THIS TIME STEP           L**3/T
   ------------------                      ------------------------

                                     IN                                         IN
                                     --                                         --
        PRECIPITATION =        1.2765D+07          PRECIPITATION =          68928.68
           STREAMFLOW =                               STREAMFLOW =                  
     GW BOUNDARY FLOW =                         GW BOUNDARY FLOW =                  


                                    OUT                                        OUT
                                    ---                                        ---
   EVAPOTRANSPIRATION =        3618002.70     EVAPOTRANSPIRATION =          68604.82
           STREAMFLOW =        2593982.27             STREAMFLOW =         124818.26
     GW BOUNDARY FLOW =          91003.31       GW BOUNDARY FLOW =            656.82

   INFLOWS - OUTFLOWS =        6461992.39     INFLOWS - OUTFLOWS =        -125151.22
             --------                                   --------

 TOTAL STORAGE CHANGE =        6469956.30         STORAGE CHANGE =        -125135.04
       --------------                             --------------
         LAND SURFACE =        5590136.74           LAND SURFACE =        -278668.69
            SOIL ZONE =        2957734.76              SOIL ZONE =          72138.46
     UNSATURATED ZONE =       -1416843.12       UNSATURATED ZONE =          78950.43
       SATURATED ZONE =        -661072.07         SATURATED ZONE =           2444.76

 OVERALL BUDGET ERROR =          -7963.91           BUDGET ERROR =            -16.18


  PERCENT DISCREPANCY =             -0.06    PERCENT DISCREPANCY =             -0.01



1
 SUMMARY VOLUMETRIC BUDGET FOR GSFLOW 
 DATE: 02 24 1981              CUMULATIVE TIME STEP:     147
 MODFLOW STRESS PERIOD      2     CURRENT TIME STEP:     147     ITERATIONS:      14

 -----------------------------------------------------------------------------------

   CUMULATIVE VOLUMES               L**3   RATES FOR THIS TIME STEP           L**3/T
   ------------------                      ------------------------

                                     IN                                         IN
                                     --                                         --
        PRECIPITATION =        1.3179D+07          PRECIPITATION =         344647.71
           STREAMFLOW =                               STREAMFLOW =                  
     GW BOUNDARY FLOW =                         GW BOUNDARY FLOW =                  


                                    OUT                                        OUT
                                    ---                                        ---
   EVAPOTRANSPIRATION =        3959324.97     EVAPOTRANSPIRATION =          18832.86
           STREAMFLOW =        3151403.72             STREAMFLOW =          52021.11
     GW BOUNDARY FLOW =          95596.36       GW BOUNDARY FLOW =            655.14

   INFLOWS - OUTFLOWS =        5972233.41     INFLOWS - OUTFLOWS =         273138.60
             --------                                   --------

 TOTAL STORAGE CHANGE =        5980159.81         STORAGE CHANGE =         273142.14
       --------------                             --------------
         LAND SURFACE =        4984331.50           LAND SURFACE =         286391.25
            SOIL ZONE =        2697188.35              SOIL ZONE =         -43322.82
     UNSATURATED ZONE =       -1063795.14       UNSATURATED ZONE =          27653.26
       SATURATED ZONE =        -637564.90         SATURATED ZONE =           2420.45

 OVERALL BUDGET ERROR =          -7926.40           BUDGET ERROR =             -3.55


  PERCENT DISCREPANCY =             -0.06    PERCENT DISCREPANCY =             -0.00



1
 SUMMARY VOLUMETRIC BUDGET FOR GSFLOW 
 DATE: 03 03 1981              CUMULATIVE TIME STEP:     154
 MODFLOW STRESS PERIOD      2     CURRENT TIME STEP:     154     ITERATIONS:      11

 -----------------------------------------------------------------------------------

   CUMULATIVE VOLUMES               L**3   RATES FOR THIS TIME STEP           L**3/T
   ------------------                      ------------------------

                                     IN                                         IN
                                     --                                         --
        PRECIPITATION =        1.3447D+07          PRECIPITATION =                  
           STREAMFLOW =                               STREAMFLOW =                  
     GW BOUNDARY FLOW =                         GW BOUNDARY FLOW =                  


                                    OUT                                        OUT
                                    ---                                        ---
   EVAPOTRANSPIRATION =        4120006.57     EVAPOTRANSPIRATION =          45353.37
           STREAMFLOW =        3375210.15             STREAMFLOW =          27756.13
     GW BOUNDARY FLOW =         100169.25       GW BOUNDARY FLOW =            652.32

   INFLOWS - OUTFLOWS =        5851232.82     INFLOWS - OUTFLOWS =         -73761.82
             --------                                   --------

 TOTAL STORAGE CHANGE =        5859053.01         STORAGE CHANGE =         -73782.27
       --------------                             --------------
         LAND SURFACE =        5068234.95           LAND SURFACE =         -66032.09
            SOIL ZONE =        2489410.25              SOIL ZONE =           2838.52
     UNSATURATED ZONE =       -1056083.88       UNSATURATED ZONE =          -8517.89
       SATURATED ZONE =        -642508.30         SATURATED ZONE =          -2070.82

 OVERALL BUDGET ERROR =          -7820.19           BUDGET ERROR =             20.45


  PERCENT DISCREPANCY =             -0.06    PERCENT DISCREPANCY =              0.03



1
 SUMMARY VOLUMETRIC BUDGET FOR GSFLOW 
 DATE: 03 10 1981              CUMULATIVE TIME STEP:     161
 MODFLOW STRESS PERIOD      2     CURRENT TIME STEP:     161     ITERATIONS:      10

 -----------------------------------------------------------------------------------

   CUMULATIVE VOLUMES               L**3   RATES FOR THIS TIME STEP           L**3/T
   ------------------                      ------------------------

                                     IN                                         IN
                                     --                                         --
        PRECIPITATION =        1.3493D+07          PRECIPITATION =                  
           STREAMFLOW =                               STREAMFLOW =                  
     GW BOUNDARY FLOW =                         GW BOUNDARY FLOW =                  


                                    OUT                                        OUT
                                    ---                                        ---
   EVAPOTRANSPIRATION =        4465789.01     EVAPOTRANSPIRATION =          72809.14
           STREAMFLOW =        3611089.18             STREAMFLOW =          43638.28
     GW BOUNDARY FLOW =         104735.29       GW BOUNDARY FLOW =            652.93

   INFLOWS - OUTFLOWS =        5311341.03     INFLOWS - OUTFLOWS =        -117100.35
             --------                                   --------

 TOTAL STORAGE CHANGE =        5319094.29         STORAGE CHANGE =        -117111.02
       --------------                             --------------
         LAND SURFACE =        4391776.93           LAND SURFACE =        -169082.62
            SOIL ZONE =        2603418.81              SOIL ZONE =          28948.61
     UNSATURATED ZONE =       -1021616.80       UNSATURATED ZONE =          23451.03
       SATURATED ZONE =        -654484.65         SATURATED ZONE =           -428.04

 OVERALL BUDGET ERROR =          -7753.25           BUDGET ERROR =             10.67


  PERCENT DISCREPANCY =             -0.06    PERCENT DISCREPANCY =              0.01



1
 SUMMARY VOLUMETRIC BUDGET FOR GSFLOW 
 DATE: 03 17 1981              CUMULATIVE TIME STEP:     168
 MODFLOW STRESS PERIOD      2     CURRENT TIME STEP:     168     ITERATIONS:       9

 -----------------------------------------------------------------------------------

   CUMULATIVE VOLUMES               L**3   RATES FOR THIS TIME STEP           L**3/T
   ------------------                      ------------------------

                                     IN                                         IN
                                     --                                         --
        PRECIPITATION =        1.3745D+07          PRECIPITATION =                  
           STREAMFLOW =                               STREAMFLOW =                  
     GW BOUNDARY FLOW =                         GW BOUNDARY FLOW =                  


                                    OUT                                        OUT
                                    ---                                        ---
   EVAPOTRANSPIRATION =        4834193.74     EVAPOTRANSPIRATION =          40234.43
           STREAMFLOW =        3838037.65             STREAMFLOW =          24123.34
     GW BOUNDARY FLOW =         109302.57       GW BOUNDARY FLOW =            651.88

   INFLOWS - OUTFLOWS =        4962968.86     INFLOWS - OUTFLOWS =         -65009.64
             --------                                   --------

 TOTAL STORAGE CHANGE =        4970627.97         STORAGE CHANGE =         -65017.04
       --------------                             --------------
         LAND SURFACE =        4202563.00           LAND SURFACE =         -39897.20
            SOIL ZONE =        2437966.21              SOIL ZONE =          -5412.28
     UNSATURATED ZONE =        -999549.38       UNSATURATED ZONE =         -15648.78
       SATURATED ZONE =        -670351.86         SATURATED ZONE =          -4058.79

 OVERALL BUDGET ERROR =          -7659.11           BUDGET ERROR =              7.40


  PERCENT DISCREPANCY =             -0.06    PERCENT DISCREPANCY =              0.01



1
 SUMMARY VOLUMETRIC BUDGET FOR GSFLOW 
 DATE: 03 24 1981              CUMULATIVE TIME STEP:     175
 MODFLOW STRESS PERIOD      2     CURRENT TIME STEP:     175     ITERATIONS:       9

 -----------------------------------------------------------------------------------

   CUMULATIVE VOLUMES               L**3   RATES FOR THIS TIME STEP           L**3/T
   ------------------                      ------------------------

                                     IN                                         IN
                                     --                                         --
        PRECIPITATION =        1.4367D+07          PRECIPITATION =                  
           STREAMFLOW =                               STREAMFLOW =                  
     GW BOUNDARY FLOW =                         GW BOUNDARY FLOW =                  


                                    OUT                                        OUT
                                    ---                                        ---
   EVAPOTRANSPIRATION =        5189976.00     EVAPOTRANSPIRATION =          87430.63
           STREAMFLOW =        4013675.68             STREAMFLOW =          26789.10
     GW BOUNDARY FLOW =         113863.01       GW BOUNDARY FLOW =            651.45

   INFLOWS - OUTFLOWS =        5049241.55     INFLOWS - OUTFLOWS =        -114871.18
             --------                                   --------

 TOTAL STORAGE CHANGE =        5056927.17         STORAGE CHANGE =        -114868.38
       --------------                             --------------
         LAND SURFACE =        4477883.38           LAND SURFACE =         -65021.85
            SOIL ZONE =        2350759.37              SOIL ZONE =         -41066.70
     UNSATURATED ZONE =       -1068848.51       UNSATURATED ZONE =          -3960.54
       SATURATED ZONE =        -702867.07         SATURATED ZONE =          -4819.29

 OVERALL BUDGET ERROR =          -7685.62           BUDGET ERROR =             -2.80


  PERCENT DISCREPANCY =             -0.05    PERCENT DISCREPANCY =             -0.00



1
 SUMMARY VOLUMETRIC BUDGET FOR GSFLOW 
 DATE: 03 31 1981              CUMULATIVE TIME STEP:     182
 MODFLOW STRESS PERIOD      2     CURRENT TIME STEP:     182     ITERATIONS:      12

 -----------------------------------------------------------------------------------

   CUMULATIVE VOLUMES               L**3   RATES FOR THIS TIME STEP           L**3/T
   ------------------                      ------------------------

                                     IN                                         IN
                                     --                                         --
        PRECIPITATION =        1.5777D+07          PRECIPITATION =                  
           STREAMFLOW =                               STREAMFLOW =                  
     GW BOUNDARY FLOW =                         GW BOUNDARY FLOW =                  


                                    OUT                                        OUT
                                    ---                                        ---
   EVAPOTRANSPIRATION =        5619906.78     EVAPOTRANSPIRATION =          54089.89
           STREAMFLOW =        4522420.91             STREAMFLOW =          37100.90
     GW BOUNDARY FLOW =         118445.01       GW BOUNDARY FLOW =            653.60

   INFLOWS - OUTFLOWS =        5515993.49     INFLOWS - OUTFLOWS =         -91844.39
             --------                                   --------

 TOTAL STORAGE CHANGE =        5523610.06         STORAGE CHANGE =         -91865.01
       --------------                             --------------
         LAND SURFACE =        4494493.34           LAND SURFACE =         -55486.84
            SOIL ZONE =        2547197.60              SOIL ZONE =         -41725.74
     UNSATURATED ZONE =        -823488.92       UNSATURATED ZONE =           5908.92
       SATURATED ZONE =        -694591.97         SATURATED ZONE =           -561.35

 OVERALL BUDGET ERROR =          -7616.57           BUDGET ERROR =             20.62


  PERCENT DISCREPANCY =             -0.05    PERCENT DISCREPANCY =              0.02



1
 SUMMARY VOLUMETRIC BUDGET FOR GSFLOW 
 DATE: 04 07 1981              CUMULATIVE TIME STEP:     189
 MODFLOW STRESS PERIOD      2     CURRENT TIME STEP:     189     ITERATIONS:      10

 -----------------------------------------------------------------------------------

   CUMULATIVE VOLUMES               L**3   RATES FOR THIS TIME STEP           L**3/T
   ------------------                      ------------------------

                                     IN                                         IN
                                     --                                         --
        PRECIPITATION =        1.6121D+07          PRECIPITATION =                  
           STREAMFLOW =                               STREAMFLOW =                  
     GW BOUNDARY FLOW =                         GW BOUNDARY FLOW =                  


                                    OUT                                        OUT
                                    ---                                        ---
   EVAPOTRANSPIRATION =        6245970.91     EVAPOTRANSPIRATION =         103842.76
           STREAMFLOW =        4840704.50             STREAMFLOW =          43396.58
     GW BOUNDARY FLOW =         123020.31       GW BOUNDARY FLOW =            653.73

   INFLOWS - OUTFLOWS =        4911787.44     INFLOWS - OUTFLOWS =        -147893.07
             --------                                   --------

 TOTAL STORAGE CHANGE =        4919281.92         STORAGE CHANGE =        -147914.91
       --------------                             --------------
         LAND SURFACE =        3870392.86           LAND SURFACE =        -138669.71
            SOIL ZONE =        2478574.34              SOIL ZONE =         -20331.82
     UNSATURATED ZONE =        -739040.01       UNSATURATED ZONE =          10758.25
       SATURATED ZONE =        -690645.27         SATURATED ZONE =            328.37

 OVERALL BUDGET ERROR =          -7494.48           BUDGET ERROR =             21.83


  PERCENT DISCREPANCY =             -0.05    PERCENT DISCREPANCY =              0.01



1
 SUMMARY VOLUMETRIC BUDGET FOR GSFLOW 
 DATE: 04 14 1981              CUMULATIVE TIME STEP:     196
 MODFLOW STRESS PERIOD      2     CURRENT TIME STEP:     196     ITERATIONS:      13

 -----------------------------------------------------------------------------------

   CUMULATIVE VOLUMES               L**3   RATES FOR THIS TIME STEP           L**3/T
   ------------------                      ------------------------

                                     IN                                         IN
                                     --                                         --
        PRECIPITATION =        1.6121D+07          PRECIPITATION =                  
           STREAMFLOW =                               STREAMFLOW =                  
     GW BOUNDARY FLOW =                         GW BOUNDARY FLOW =                  


                                    OUT                                        OUT
                                    ---                                        ---
   EVAPOTRANSPIRATION =        7156660.65     EVAPOTRANSPIRATION =         191910.02
           STREAMFLOW =        5167836.01             STREAMFLOW =          55463.91
     GW BOUNDARY FLOW =         127595.69       GW BOUNDARY FLOW =            653.68

   INFLOWS - OUTFLOWS =        3669390.81     INFLOWS - OUTFLOWS =        -248027.61
             --------                                   --------

 TOTAL STORAGE CHANGE =        3676770.72         STORAGE CHANGE =        -248033.15
       --------------                             --------------
         LAND SURFACE =        2621639.69           LAND SURFACE =        -253015.87
            SOIL ZONE =        2387018.35              SOIL ZONE =         -16778.19
     UNSATURATED ZONE =        -647918.55       UNSATURATED ZONE =          19710.73
       SATURATED ZONE =        -683968.77         SATURATED ZONE =           2050.19

 OVERALL BUDGET ERROR =          -7379.91           BUDGET ERROR =              5.54


  PERCENT DISCREPANCY =             -0.05    PERCENT DISCREPANCY =              0.00



1
 SUMMARY VOLUMETRIC BUDGET FOR GSFLOW 
 DATE: 04 21 1981              CUMULATIVE TIME STEP:     203
 MODFLOW STRESS PERIOD      2     CURRENT TIME STEP:     203     ITERATIONS:      12

 -----------------------------------------------------------------------------------

   CUMULATIVE VOLUMES               L**3   RATES FOR THIS TIME STEP           L**3/T
   ------------------                      ------------------------

                                     IN                                         IN
                                     --                                         --
        PRECIPITATION =        1.6310D+07          PRECIPITATION =                  
           STREAMFLOW =                               STREAMFLOW =                  
     GW BOUNDARY FLOW =                         GW BOUNDARY FLOW =                  


                                    OUT                                        OUT
                                    ---                                        ---
   EVAPOTRANSPIRATION =        8228618.21     EVAPOTRANSPIRATION =         152247.07
           STREAMFLOW =        5507034.71             STREAMFLOW =          45789.30
     GW BOUNDARY FLOW =         132167.13       GW BOUNDARY FLOW =            652.63

   INFLOWS - OUTFLOWS =        2442437.36     INFLOWS - OUTFLOWS =        -198689.00
             --------                                   --------

 TOTAL STORAGE CHANGE =        2449696.94         STORAGE CHANGE =        -198715.93
       --------------                             --------------
         LAND SURFACE =        1441063.63           LAND SURFACE =        -121364.40
            SOIL ZONE =        2205067.03              SOIL ZONE =         -97328.13
     UNSATURATED ZONE =        -529433.98       UNSATURATED ZONE =          17088.25
       SATURATED ZONE =        -666999.74         SATURATED ZONE =           2888.35

 OVERALL BUDGET ERROR =          -7259.59           BUDGET ERROR =             26.92


  PERCENT DISCREPANCY =             -0.04    PERCENT DISCREPANCY =              0.01



1
 SUMMARY VOLUMETRIC BUDGET FOR GSFLOW 
 DATE: 04 28 1981              CUMULATIVE TIME STEP:     210
 MODFLOW STRESS PERIOD      2     CURRENT TIME STEP:     210     ITERATIONS:      14

 -----------------------------------------------------------------------------------

   CUMULATIVE VOLUMES               L**3   RATES FOR THIS TIME STEP           L**3/T
   ------------------                      ------------------------

                                     IN                                         IN
                                     --                                         --
        PRECIPITATION =        1.6515D+07          PRECIPITATION =                  
           STREAMFLOW =                               STREAMFLOW =                  
     GW BOUNDARY FLOW =                         GW BOUNDARY FLOW =                  


                                    OUT                                        OUT
                                    ---                                        ---
   EVAPOTRANSPIRATION =        9467106.27     EVAPOTRANSPIRATION =         200398.84
           STREAMFLOW =        5719122.02             STREAMFLOW =          24668.11
     GW BOUNDARY FLOW =         136726.62       GW BOUNDARY FLOW =            650.47

   INFLOWS - OUTFLOWS =        1192492.05     INFLOWS - OUTFLOWS =        -225717.42
             --------                                   --------

 TOTAL STORAGE CHANGE =        1199636.32         STORAGE CHANGE =        -225736.94
       --------------                             --------------
         LAND SURFACE =         691620.73           LAND SURFACE =         -83515.74
            SOIL ZONE =        1694972.31              SOIL ZONE =        -138423.66
     UNSATURATED ZONE =        -527451.92       UNSATURATED ZONE =          -4086.17
       SATURATED ZONE =        -659504.79         SATURATED ZONE =            288.62

 OVERALL BUDGET ERROR =          -7144.28           BUDGET ERROR =             19.52


  PERCENT DISCREPANCY =             -0.04    PERCENT DISCREPANCY =              0.01



1
 SUMMARY VOLUMETRIC BUDGET FOR GSFLOW 
 DATE: 05 05 1981              CUMULATIVE TIME STEP:     217
 MODFLOW STRESS PERIOD      2     CURRENT TIME STEP:     217     ITERATIONS:      13

 -----------------------------------------------------------------------------------

   CUMULATIVE VOLUMES               L**3   RATES FOR THIS TIME STEP           L**3/T
   ------------------                      ------------------------

                                     IN                                         IN
                                     --                                         --
        PRECIPITATION =        1.6515D+07          PRECIPITATION =                  
           STREAMFLOW =                               STREAMFLOW =                  
     GW BOUNDARY FLOW =                         GW BOUNDARY FLOW =                  


                                    OUT                                        OUT
                                    ---                                        ---
   EVAPOTRANSPIRATION =        1.0354D+07     EVAPOTRANSPIRATION =          52071.81
           STREAMFLOW =        5824067.46             STREAMFLOW =          10603.71
     GW BOUNDARY FLOW =         141272.96       GW BOUNDARY FLOW =            648.78

   INFLOWS - OUTFLOWS =         196116.29     INFLOWS - OUTFLOWS =         -63324.30
             --------                                   --------

 TOTAL STORAGE CHANGE =         203196.89         STORAGE CHANGE =         -63323.74
       --------------                             --------------
         LAND SURFACE =         347403.60           LAND SURFACE =         -17503.36
            SOIL ZONE =        1153507.00              SOIL ZONE =         -26297.56
     UNSATURATED ZONE =        -624836.34       UNSATURATED ZONE =         -16447.78
       SATURATED ZONE =        -672877.37         SATURATED ZONE =          -3075.03

 OVERALL BUDGET ERROR =          -7080.60           BUDGET ERROR =             -0.56


  PERCENT DISCREPANCY =             -0.04    PERCENT DISCREPANCY =             -0.00



1
 SUMMARY VOLUMETRIC BUDGET FOR GSFLOW 
 DATE: 05 12 1981              CUMULATIVE TIME STEP:     224
 MODFLOW STRESS PERIOD      2     CURRENT TIME STEP:     224     ITERATIONS:      15

 -----------------------------------------------------------------------------------

   CUMULATIVE VOLUMES               L**3   RATES FOR THIS TIME STEP           L**3/T
   ------------------                      ------------------------

                                     IN                                         IN
                                     --                                         --
        PRECIPITATION =        1.6515D+07          PRECIPITATION =                  
           STREAMFLOW =                               STREAMFLOW =                  
     GW BOUNDARY FLOW =                         GW BOUNDARY FLOW =                  


                                    OUT                                        OUT
                                    ---                                        ---
   EVAPOTRANSPIRATION =        1.0874D+07     EVAPOTRANSPIRATION =          91407.20
           STREAMFLOW =        5893117.45             STREAMFLOW =          10122.27
     GW BOUNDARY FLOW =         145811.38       GW BOUNDARY FLOW =            648.17

   INFLOWS - OUTFLOWS =        -397854.89     INFLOWS - OUTFLOWS =        -102177.65
             --------                                   --------

 TOTAL STORAGE CHANGE =        -390773.11         STORAGE CHANGE =        -102172.08
       --------------                             --------------
         LAND SURFACE =         198720.95           LAND SURFACE =         -25499.92
            SOIL ZONE =         845403.22              SOIL ZONE =         -57519.79
     UNSATURATED ZONE =        -732083.72       UNSATURATED ZONE =         -13708.27
       SATURATED ZONE =        -702813.55         SATURATED ZONE =          -5444.10

 OVERALL BUDGET ERROR =          -7081.78           BUDGET ERROR =             -5.57


  PERCENT DISCREPANCY =             -0.04    PERCENT DISCREPANCY =             -0.01



1
 SUMMARY VOLUMETRIC BUDGET FOR GSFLOW 
 DATE: 05 19 1981              CUMULATIVE TIME STEP:     231
 MODFLOW STRESS PERIOD      2     CURRENT TIME STEP:     231     ITERATIONS:      15

 -----------------------------------------------------------------------------------

   CUMULATIVE VOLUMES               L**3   RATES FOR THIS TIME STEP           L**3/T
   ------------------                      ------------------------

                                     IN                                         IN
                                     --                                         --
        PRECIPITATION =        1.7837D+07          PRECIPITATION =         169047.83
           STREAMFLOW =                               STREAMFLOW =                  
     GW BOUNDARY FLOW =                         GW BOUNDARY FLOW =                  


                                    OUT                                        OUT
                                    ---                                        ---
   EVAPOTRANSPIRATION =        1.1232D+07     EVAPOTRANSPIRATION =          35342.78
           STREAMFLOW =        6017647.39             STREAMFLOW =          25673.02
     GW BOUNDARY FLOW =         150350.41       GW BOUNDARY FLOW =            649.44

   INFLOWS - OUTFLOWS =         436836.56     INFLOWS - OUTFLOWS =         107382.59
             --------                                   --------

 TOTAL STORAGE CHANGE =         443910.90         STORAGE CHANGE =         107385.80
       --------------                             --------------
         LAND SURFACE =         167126.53           LAND SURFACE =           4530.43
            SOIL ZONE =        1824302.64              SOIL ZONE =         110365.03
     UNSATURATED ZONE =        -804700.25       UNSATURATED ZONE =          -1975.98
       SATURATED ZONE =        -742818.02         SATURATED ZONE =          -5533.69

 OVERALL BUDGET ERROR =          -7074.34           BUDGET ERROR =             -3.20


  PERCENT DISCREPANCY =             -0.04    PERCENT DISCREPANCY =             -0.00



1
 SUMMARY VOLUMETRIC BUDGET FOR GSFLOW 
 DATE: 05 26 1981              CUMULATIVE TIME STEP:     238
 MODFLOW STRESS PERIOD      2     CURRENT TIME STEP:     238     ITERATIONS:      12

 -----------------------------------------------------------------------------------

   CUMULATIVE VOLUMES               L**3   RATES FOR THIS TIME STEP           L**3/T
   ------------------                      ------------------------

                                     IN                                         IN
                                     --                                         --
        PRECIPITATION =        1.8252D+07          PRECIPITATION =         284301.98
           STREAMFLOW =                               STREAMFLOW =                  
     GW BOUNDARY FLOW =                         GW BOUNDARY FLOW =                  


                                    OUT                                        OUT
                                    ---                                        ---
   EVAPOTRANSPIRATION =        1.2124D+07     EVAPOTRANSPIRATION =         143847.36
           STREAMFLOW =        6124028.60             STREAMFLOW =          18212.99
     GW BOUNDARY FLOW =         154891.05       GW BOUNDARY FLOW =            648.42

   INFLOWS - OUTFLOWS =        -150923.87     INFLOWS - OUTFLOWS =         121593.20
             --------                                   --------

 TOTAL STORAGE CHANGE =        -143830.70         STORAGE CHANGE =         121598.42
       --------------                             --------------
         LAND SURFACE =          96901.93           LAND SURFACE =          -7055.52
            SOIL ZONE =        1416521.08              SOIL ZONE =         146522.37
     UNSATURATED ZONE =        -865925.18       UNSATURATED ZONE =         -10988.81
       SATURATED ZONE =        -791328.52         SATURATED ZONE =          -6879.62

 OVERALL BUDGET ERROR =          -7093.18           BUDGET ERROR =             -5.22


  PERCENT DISCREPANCY =             -0.04    PERCENT DISCREPANCY =             -0.00



1
 SUMMARY VOLUMETRIC BUDGET FOR GSFLOW 
 DATE: 06 02 1981              CUMULATIVE TIME STEP:     245
 MODFLOW STRESS PERIOD      2     CURRENT TIME STEP:     245     ITERATIONS:      14

 -----------------------------------------------------------------------------------

   CUMULATIVE VOLUMES               L**3   RATES FOR THIS TIME STEP           L**3/T
   ------------------                      ------------------------

                                     IN                                         IN
                                     --                                         --
        PRECIPITATION =        1.8318D+07          PRECIPITATION =          50867.39
           STREAMFLOW =                               STREAMFLOW =                  
     GW BOUNDARY FLOW =                         GW BOUNDARY FLOW =                  


                                    OUT                                        OUT
                                    ---                                        ---
   EVAPOTRANSPIRATION =        1.2927D+07     EVAPOTRANSPIRATION =          64990.50
           STREAMFLOW =        6190266.93             STREAMFLOW =           7479.49
     GW BOUNDARY FLOW =         159425.69       GW BOUNDARY FLOW =            647.38

   INFLOWS - OUTFLOWS =        -958069.47     INFLOWS - OUTFLOWS =         -22249.99
             --------                                   --------

 TOTAL STORAGE CHANGE =        -950951.56         STORAGE CHANGE =         -22249.17
       --------------                             --------------
         LAND SURFACE =          61824.55           LAND SURFACE =          30829.61
            SOIL ZONE =         790764.61              SOIL ZONE =         -30853.62
     UNSATURATED ZONE =        -954440.00       UNSATURATED ZONE =         -13645.27
       SATURATED ZONE =        -849100.72         SATURATED ZONE =          -8579.89

 OVERALL BUDGET ERROR =          -7117.91           BUDGET ERROR =             -0.81


  PERCENT DISCREPANCY =             -0.04    PERCENT DISCREPANCY =             -0.00



1
 SUMMARY VOLUMETRIC BUDGET FOR GSFLOW 
 DATE: 06 09 1981              CUMULATIVE TIME STEP:     252
 MODFLOW STRESS PERIOD      2     CURRENT TIME STEP:     252     ITERATIONS:      13

 -----------------------------------------------------------------------------------

   CUMULATIVE VOLUMES               L**3   RATES FOR THIS TIME STEP           L**3/T
   ------------------                      ------------------------

                                     IN                                         IN
                                     --                                         --
        PRECIPITATION =        1.8318D+07          PRECIPITATION =                  
           STREAMFLOW =                               STREAMFLOW =                  
     GW BOUNDARY FLOW =                         GW BOUNDARY FLOW =                  


                                    OUT                                        OUT
                                    ---                                        ---
   EVAPOTRANSPIRATION =        1.3394D+07     EVAPOTRANSPIRATION =          48544.60
           STREAMFLOW =        6236964.71             STREAMFLOW =           6324.34
     GW BOUNDARY FLOW =         163955.35       GW BOUNDARY FLOW =            646.94

   INFLOWS - OUTFLOWS =       -1476984.32     INFLOWS - OUTFLOWS =         -55515.88
             --------                                   --------

 TOTAL STORAGE CHANGE =       -1469825.83         STORAGE CHANGE =         -55513.11
       --------------                             --------------
         LAND SURFACE =           8254.44           LAND SURFACE =          -1595.45
            SOIL ZONE =         480972.03              SOIL ZONE =         -31741.48
     UNSATURATED ZONE =       -1047586.68       UNSATURATED ZONE =         -13065.24
       SATURATED ZONE =        -911465.62         SATURATED ZONE =          -9110.94

 OVERALL BUDGET ERROR =          -7158.49           BUDGET ERROR =             -2.77


  PERCENT DISCREPANCY =             -0.04    PERCENT DISCREPANCY =             -0.00



1
 SUMMARY VOLUMETRIC BUDGET FOR GSFLOW 
 DATE: 06 16 1981              CUMULATIVE TIME STEP:     259
 MODFLOW STRESS PERIOD      2     CURRENT TIME STEP:     259     ITERATIONS:      12

 -----------------------------------------------------------------------------------

   CUMULATIVE VOLUMES               L**3   RATES FOR THIS TIME STEP           L**3/T
   ------------------                      ------------------------

                                     IN                                         IN
                                     --                                         --
        PRECIPITATION =        1.8318D+07          PRECIPITATION =                  
           STREAMFLOW =                               STREAMFLOW =                  
     GW BOUNDARY FLOW =                         GW BOUNDARY FLOW =                  


                                    OUT                                        OUT
                                    ---                                        ---
   EVAPOTRANSPIRATION =        1.3579D+07     EVAPOTRANSPIRATION =          43990.51
           STREAMFLOW =        6280209.98             STREAMFLOW =           6114.81
     GW BOUNDARY FLOW =         168483.03       GW BOUNDARY FLOW =            646.73

   INFLOWS - OUTFLOWS =       -1709021.46     INFLOWS - OUTFLOWS =         -50752.04
             --------                                   --------

 TOTAL STORAGE CHANGE =       -1701816.14         STORAGE CHANGE =         -50749.89
       --------------                             --------------
         LAND SURFACE =           3426.51           LAND SURFACE =           -943.67
            SOIL ZONE =         407711.22              SOIL ZONE =         -27945.09
     UNSATURATED ZONE =       -1136666.16       UNSATURATED ZONE =         -12435.56
       SATURATED ZONE =        -976287.72         SATURATED ZONE =          -9425.57

 OVERALL BUDGET ERROR =          -7205.32           BUDGET ERROR =             -2.15


  PERCENT DISCREPANCY =             -0.04    PERCENT DISCREPANCY =             -0.00



1
 SUMMARY VOLUMETRIC BUDGET FOR GSFLOW 
 DATE: 06 23 1981              CUMULATIVE TIME STEP:     266
 MODFLOW STRESS PERIOD      2     CURRENT TIME STEP:     266     ITERATIONS:      14

 -----------------------------------------------------------------------------------

   CUMULATIVE VOLUMES               L**3   RATES FOR THIS TIME STEP           L**3/T
   ------------------                      ------------------------

                                     IN                                         IN
                                     --                                         --
        PRECIPITATION =        1.8318D+07          PRECIPITATION =                  
           STREAMFLOW =                               STREAMFLOW =                  
     GW BOUNDARY FLOW =                         GW BOUNDARY FLOW =                  


                                    OUT                                        OUT
                                    ---                                        ---
   EVAPOTRANSPIRATION =        1.3857D+07     EVAPOTRANSPIRATION =          33005.42
           STREAMFLOW =        6322178.93             STREAMFLOW =           5933.60
     GW BOUNDARY FLOW =         173009.48       GW BOUNDARY FLOW =            646.56

   INFLOWS - OUTFLOWS =       -2033813.12     INFLOWS - OUTFLOWS =         -39585.58
             --------                                   --------

 TOTAL STORAGE CHANGE =       -2026586.66         STORAGE CHANGE =         -39583.20
       --------------                             --------------
         LAND SURFACE =                             LAND SURFACE =                  
            SOIL ZONE =         238231.36              SOIL ZONE =         -18006.41
     UNSATURATED ZONE =       -1221486.83       UNSATURATED ZONE =         -11730.87
       SATURATED ZONE =       -1043331.19         SATURATED ZONE =          -9845.92

 OVERALL BUDGET ERROR =          -7226.46           BUDGET ERROR =             -2.37


  PERCENT DISCREPANCY =             -0.04    PERCENT DISCREPANCY =             -0.01



1
 SUMMARY VOLUMETRIC BUDGET FOR GSFLOW 
 DATE: 06 30 1981              CUMULATIVE TIME STEP:     273
 MODFLOW STRESS PERIOD      2     CURRENT TIME STEP:     273     ITERATIONS:       9

 -----------------------------------------------------------------------------------

   CUMULATIVE VOLUMES               L**3   RATES FOR THIS TIME STEP           L**3/T
   ------------------                      ------------------------

                                     IN                                         IN
[...]
     GW BOUNDARY FLOW =        3735623.77       GW BOUNDARY FLOW =            650.71

   INFLOWS - OUTFLOWS =       -7931755.47     INFLOWS - OUTFLOWS =         -48720.85
             --------                                   --------

 TOTAL STORAGE CHANGE =       -7824857.39         STORAGE CHANGE =         -48737.71
       --------------                             --------------
         LAND SURFACE =          84521.90           LAND SURFACE =          -4963.73
            SOIL ZONE =         221358.44              SOIL ZONE =         -22483.75
     UNSATURATED ZONE =        5304056.20       UNSATURATED ZONE =         -27513.59
       SATURATED ZONE =       -1.3435D+07         SATURATED ZONE =           6223.36

 OVERALL BUDGET ERROR =        -106898.08           BUDGET ERROR =             16.86


  PERCENT DISCREPANCY =             -0.02    PERCENT DISCREPANCY =              0.03



1
 SUMMARY VOLUMETRIC BUDGET FOR GSFLOW 
 DATE: 07 30 1996              CUMULATIVE TIME STEP:    5782
 MODFLOW STRESS PERIOD      2     CURRENT TIME STEP:    5782     ITERATIONS:      14

 -----------------------------------------------------------------------------------

   CUMULATIVE VOLUMES               L**3   RATES FOR THIS TIME STEP           L**3/T
   ------------------                      ------------------------

                                     IN                                         IN
                                     --                                         --
        PRECIPITATION =        4.6511D+08          PRECIPITATION =                  
           STREAMFLOW =                               STREAMFLOW =                  
     GW BOUNDARY FLOW =                         GW BOUNDARY FLOW =                  


                                    OUT                                        OUT
                                    ---                                        ---
   EVAPOTRANSPIRATION =        2.8894D+08     EVAPOTRANSPIRATION =          25374.33
           STREAMFLOW =        1.8062D+08             STREAMFLOW =           6739.71
     GW BOUNDARY FLOW =        3740177.11       GW BOUNDARY FLOW =            650.28

   INFLOWS - OUTFLOWS =       -8188180.67     INFLOWS - OUTFLOWS =         -32764.32
             --------                                   --------

 TOTAL STORAGE CHANGE =       -8081360.86         STORAGE CHANGE =         -32777.14
       --------------                             --------------
         LAND SURFACE =          55427.09           LAND SURFACE =          -3488.58
            SOIL ZONE =         141567.89              SOIL ZONE =          -8333.02
     UNSATURATED ZONE =        5116540.51       UNSATURATED ZONE =         -26306.19
       SATURATED ZONE =       -1.3395D+07         SATURATED ZONE =           5350.64

 OVERALL BUDGET ERROR =        -106819.82           BUDGET ERROR =             12.81


  PERCENT DISCREPANCY =             -0.02    PERCENT DISCREPANCY =              0.04



1
 SUMMARY VOLUMETRIC BUDGET FOR GSFLOW 
 DATE: 08 06 1996              CUMULATIVE TIME STEP:    5789
 MODFLOW STRESS PERIOD      2     CURRENT TIME STEP:    5789     ITERATIONS:      13

 -----------------------------------------------------------------------------------

   CUMULATIVE VOLUMES               L**3   RATES FOR THIS TIME STEP           L**3/T
   ------------------                      ------------------------

                                     IN                                         IN
                                     --                                         --
        PRECIPITATION =        4.6511D+08          PRECIPITATION =                  
           STREAMFLOW =                               STREAMFLOW =                  
     GW BOUNDARY FLOW =                         GW BOUNDARY FLOW =                  


                                    OUT                                        OUT
                                    ---                                        ---
   EVAPOTRANSPIRATION =        2.8908D+08     EVAPOTRANSPIRATION =          18604.47
           STREAMFLOW =        1.8067D+08             STREAMFLOW =           6539.05
     GW BOUNDARY FLOW =        3744727.32       GW BOUNDARY FLOW =            649.91

   INFLOWS - OUTFLOWS =       -8375042.36     INFLOWS - OUTFLOWS =         -25793.42
             --------                                   --------

 TOTAL STORAGE CHANGE =       -8268360.70         STORAGE CHANGE =         -25820.04
       --------------                             --------------
         LAND SURFACE =          37080.11           LAND SURFACE =          -2254.04
            SOIL ZONE =         118461.21              SOIL ZONE =          -2891.21
     UNSATURATED ZONE =        4934931.64       UNSATURATED ZONE =         -25446.41
       SATURATED ZONE =       -1.3359D+07         SATURATED ZONE =           4771.63

 OVERALL BUDGET ERROR =        -106681.66           BUDGET ERROR =             26.62


  PERCENT DISCREPANCY =             -0.02    PERCENT DISCREPANCY =              0.10



1
 SUMMARY VOLUMETRIC BUDGET FOR GSFLOW 
 DATE: 08 13 1996              CUMULATIVE TIME STEP:    5796
 MODFLOW STRESS PERIOD      2     CURRENT TIME STEP:    5796     ITERATIONS:      14

 -----------------------------------------------------------------------------------

   CUMULATIVE VOLUMES               L**3   RATES FOR THIS TIME STEP           L**3/T
   ------------------                      ------------------------

                                     IN                                         IN
                                     --                                         --
        PRECIPITATION =        4.6531D+08          PRECIPITATION =          54456.73
           STREAMFLOW =                               STREAMFLOW =                  
     GW BOUNDARY FLOW =                         GW BOUNDARY FLOW =                  


                                    OUT                                        OUT
                                    ---                                        ---
   EVAPOTRANSPIRATION =        2.8925D+08     EVAPOTRANSPIRATION =          33539.53
           STREAMFLOW =        1.8071D+08             STREAMFLOW =           7738.59
     GW BOUNDARY FLOW =        3749276.58       GW BOUNDARY FLOW =            649.94

   INFLOWS - OUTFLOWS =       -8398667.37     INFLOWS - OUTFLOWS =          12528.66
             --------                                   --------

 TOTAL STORAGE CHANGE =       -8292075.67         STORAGE CHANGE =          12513.77
       --------------                             --------------
         LAND SURFACE =          53177.14           LAND SURFACE =          -2312.81
            SOIL ZONE =         221807.53              SOIL ZONE =          35090.93
     UNSATURATED ZONE =        4761563.30       UNSATURATED ZONE =         -24145.37
       SATURATED ZONE =       -1.3329D+07         SATURATED ZONE =           3881.03

 OVERALL BUDGET ERROR =        -106591.71           BUDGET ERROR =             14.89


  PERCENT DISCREPANCY =             -0.02    PERCENT DISCREPANCY =              0.03



1
 SUMMARY VOLUMETRIC BUDGET FOR GSFLOW 
 DATE: 08 20 1996              CUMULATIVE TIME STEP:    5803
 MODFLOW STRESS PERIOD      2     CURRENT TIME STEP:    5803     ITERATIONS:      13

 -----------------------------------------------------------------------------------

   CUMULATIVE VOLUMES               L**3   RATES FOR THIS TIME STEP           L**3/T
   ------------------                      ------------------------

                                     IN                                         IN
                                     --                                         --
        PRECIPITATION =        4.6531D+08          PRECIPITATION =                  
           STREAMFLOW =                               STREAMFLOW =                  
     GW BOUNDARY FLOW =                         GW BOUNDARY FLOW =                  


                                    OUT                                        OUT
                                    ---                                        ---
   EVAPOTRANSPIRATION =        2.8945D+08     EVAPOTRANSPIRATION =          16671.88
           STREAMFLOW =        1.8076D+08             STREAMFLOW =           6347.43
     GW BOUNDARY FLOW =        3753824.80       GW BOUNDARY FLOW =            649.60

   INFLOWS - OUTFLOWS =       -8646721.83     INFLOWS - OUTFLOWS =         -23668.90
             --------                                   --------

 TOTAL STORAGE CHANGE =       -8540264.93         STORAGE CHANGE =         -23694.91
       --------------                             --------------
         LAND SURFACE =           6933.74           LAND SURFACE =          -1297.55
            SOIL ZONE =         161643.53              SOIL ZONE =          -2240.59
     UNSATURATED ZONE =        4596921.32       UNSATURATED ZONE =         -23081.63
       SATURATED ZONE =       -1.3306D+07         SATURATED ZONE =           2924.87

 OVERALL BUDGET ERROR =        -106456.90           BUDGET ERROR =             26.00


  PERCENT DISCREPANCY =             -0.02    PERCENT DISCREPANCY =              0.11



1
 SUMMARY VOLUMETRIC BUDGET FOR GSFLOW 
 DATE: 08 27 1996              CUMULATIVE TIME STEP:    5810
 MODFLOW STRESS PERIOD      2     CURRENT TIME STEP:    5810     ITERATIONS:      13

 -----------------------------------------------------------------------------------

   CUMULATIVE VOLUMES               L**3   RATES FOR THIS TIME STEP           L**3/T
   ------------------                      ------------------------

                                     IN                                         IN
                                     --                                         --
        PRECIPITATION =        4.6531D+08          PRECIPITATION =                  
           STREAMFLOW =                               STREAMFLOW =                  
     GW BOUNDARY FLOW =                         GW BOUNDARY FLOW =                  


                                    OUT                                        OUT
                                    ---                                        ---
   EVAPOTRANSPIRATION =        2.8958D+08     EVAPOTRANSPIRATION =          15152.20
           STREAMFLOW =        1.8080D+08             STREAMFLOW =           6188.80
     GW BOUNDARY FLOW =        3758370.65       GW BOUNDARY FLOW =            649.26

   INFLOWS - OUTFLOWS =       -8830775.83     INFLOWS - OUTFLOWS =         -21990.26
             --------                                   --------

 TOTAL STORAGE CHANGE =       -8724407.45         STORAGE CHANGE =         -22002.32
       --------------                             --------------
         LAND SURFACE =           1244.67           LAND SURFACE =           -272.68
            SOIL ZONE =         123223.34              SOIL ZONE =          -1826.87
     UNSATURATED ZONE =        4440531.28       UNSATURATED ZONE =         -21988.09
       SATURATED ZONE =       -1.3289D+07         SATURATED ZONE =           2085.32

 OVERALL BUDGET ERROR =        -106368.38           BUDGET ERROR =             12.06


  PERCENT DISCREPANCY =             -0.02    PERCENT DISCREPANCY =              0.05



1
 SUMMARY VOLUMETRIC BUDGET FOR GSFLOW 
 DATE: 09 03 1996              CUMULATIVE TIME STEP:    5817
 MODFLOW STRESS PERIOD      2     CURRENT TIME STEP:    5817     ITERATIONS:      12

 -----------------------------------------------------------------------------------

   CUMULATIVE VOLUMES               L**3   RATES FOR THIS TIME STEP           L**3/T
   ------------------                      ------------------------

                                     IN                                         IN
                                     --                                         --
        PRECIPITATION =        4.6531D+08          PRECIPITATION =                  
           STREAMFLOW =                               STREAMFLOW =                  
     GW BOUNDARY FLOW =                         GW BOUNDARY FLOW =                  


                                    OUT                                        OUT
                                    ---                                        ---
   EVAPOTRANSPIRATION =        2.8968D+08     EVAPOTRANSPIRATION =          12343.51
           STREAMFLOW =        1.8085D+08             STREAMFLOW =           6088.86
     GW BOUNDARY FLOW =        3762913.99       GW BOUNDARY FLOW =            648.88

   INFLOWS - OUTFLOWS =       -8979822.32     INFLOWS - OUTFLOWS =         -19081.26
             --------                                   --------

 TOTAL STORAGE CHANGE =       -8873619.81         STORAGE CHANGE =         -19101.10
       --------------                             --------------
         LAND SURFACE =            584.39           LAND SURFACE =            -75.06
            SOIL ZONE =         113167.74              SOIL ZONE =            660.41
     UNSATURATED ZONE =        4290408.57       UNSATURATED ZONE =         -21140.59
       SATURATED ZONE =       -1.3278D+07         SATURATED ZONE =           1454.13

 OVERALL BUDGET ERROR =        -106202.50           BUDGET ERROR =             19.84


  PERCENT DISCREPANCY =             -0.02    PERCENT DISCREPANCY =              0.10



1
 SUMMARY VOLUMETRIC BUDGET FOR GSFLOW 
 DATE: 09 10 1996              CUMULATIVE TIME STEP:    5824
 MODFLOW STRESS PERIOD      2     CURRENT TIME STEP:    5824     ITERATIONS:      12

 -----------------------------------------------------------------------------------

   CUMULATIVE VOLUMES               L**3   RATES FOR THIS TIME STEP           L**3/T
   ------------------                      ------------------------

                                     IN                                         IN
                                     --                                         --
        PRECIPITATION =        4.6531D+08          PRECIPITATION =                  
           STREAMFLOW =                               STREAMFLOW =                  
     GW BOUNDARY FLOW =                         GW BOUNDARY FLOW =                  


                                    OUT                                        OUT
                                    ---                                        ---
   EVAPOTRANSPIRATION =        2.8977D+08     EVAPOTRANSPIRATION =          13669.67
           STREAMFLOW =        1.8089D+08             STREAMFLOW =           5997.80
     GW BOUNDARY FLOW =        3767454.73       GW BOUNDARY FLOW =            648.51

   INFLOWS - OUTFLOWS =       -9109339.66     INFLOWS - OUTFLOWS =         -20315.98
             --------                                   --------

 TOTAL STORAGE CHANGE =       -9003304.30         STORAGE CHANGE =         -20339.54
       --------------                             --------------
         LAND SURFACE =            141.92           LAND SURFACE =            -69.29
            SOIL ZONE =         120899.81              SOIL ZONE =           -794.07
     UNSATURATED ZONE =        4142845.41       UNSATURATED ZONE =         -20899.91
       SATURATED ZONE =       -1.3267D+07         SATURATED ZONE =           1423.72

 OVERALL BUDGET ERROR =        -106035.36           BUDGET ERROR =             23.56


  PERCENT DISCREPANCY =             -0.02    PERCENT DISCREPANCY =              0.12



1
 SUMMARY VOLUMETRIC BUDGET FOR GSFLOW 
 DATE: 09 17 1996              CUMULATIVE TIME STEP:    5831
 MODFLOW STRESS PERIOD      2     CURRENT TIME STEP:    5831     ITERATIONS:      11

 -----------------------------------------------------------------------------------

   CUMULATIVE VOLUMES               L**3   RATES FOR THIS TIME STEP           L**3/T
   ------------------                      ------------------------

                                     IN                                         IN
                                     --                                         --
        PRECIPITATION =        4.6637D+08          PRECIPITATION =                  
           STREAMFLOW =                               STREAMFLOW =                  
     GW BOUNDARY FLOW =                         GW BOUNDARY FLOW =                  


                                    OUT                                        OUT
                                    ---                                        ---
   EVAPOTRANSPIRATION =        2.8995D+08     EVAPOTRANSPIRATION =          63860.91
           STREAMFLOW =        1.8095D+08             STREAMFLOW =          10044.38
     GW BOUNDARY FLOW =        3771994.82       GW BOUNDARY FLOW =            648.92

   INFLOWS - OUTFLOWS =       -8311016.76     INFLOWS - OUTFLOWS =         -74554.22
             --------                                   --------

 TOTAL STORAGE CHANGE =       -8205183.45         STORAGE CHANGE =         -74597.34
       --------------                             --------------
         LAND SURFACE =           2829.02           LAND SURFACE =         -35615.32
            SOIL ZONE =        1049668.74              SOIL ZONE =         -19687.48
     UNSATURATED ZONE =        4000657.27       UNSATURATED ZONE =         -19899.14
       SATURATED ZONE =       -1.3258D+07         SATURATED ZONE =            604.60

 OVERALL BUDGET ERROR =        -105833.31           BUDGET ERROR =             43.12


  PERCENT DISCREPANCY =             -0.02    PERCENT DISCREPANCY =              0.06



1
 SUMMARY VOLUMETRIC BUDGET FOR GSFLOW 
 DATE: 09 24 1996              CUMULATIVE TIME STEP:    5838
 MODFLOW STRESS PERIOD      2     CURRENT TIME STEP:    5838     ITERATIONS:      12

 -----------------------------------------------------------------------------------

   CUMULATIVE VOLUMES               L**3   RATES FOR THIS TIME STEP           L**3/T
   ------------------                      ------------------------

                                     IN                                         IN
                                     --                                         --
        PRECIPITATION =        4.6637D+08          PRECIPITATION =                  
           STREAMFLOW =                               STREAMFLOW =                  
     GW BOUNDARY FLOW =                         GW BOUNDARY FLOW =                  


                                    OUT                                        OUT
                                    ---                                        ---
   EVAPOTRANSPIRATION =        2.9045D+08     EVAPOTRANSPIRATION =          56976.27
           STREAMFLOW =        1.8100D+08             STREAMFLOW =           6390.19
     GW BOUNDARY FLOW =        3776533.31       GW BOUNDARY FLOW =            648.02

   INFLOWS - OUTFLOWS =       -8861892.75     INFLOWS - OUTFLOWS =         -64014.48
             --------                                   --------

 TOTAL STORAGE CHANGE =       -8756255.80         STORAGE CHANGE =         -64035.91
       --------------                             --------------
         LAND SURFACE =                             LAND SURFACE =                  
            SOIL ZONE =         635752.10              SOIL ZONE =         -44938.31
     UNSATURATED ZONE =        3864900.21       UNSATURATED ZONE =         -19221.95
       SATURATED ZONE =       -1.3257D+07         SATURATED ZONE =            124.36

 OVERALL BUDGET ERROR =        -105636.95           BUDGET ERROR =             21.43


  PERCENT DISCREPANCY =             -0.02    PERCENT DISCREPANCY =              0.03



 Number of time steps:   5844;  Number of non-convergence:   0
 MF iterations:         63743;  SZ iterations:           63705
 Average MF iterations: 10.91;  Average SZ iterations:   10.90
 Maximum MF iterations:    32;  Maximum SZ iterations:      25

mxsziter reached: 13

