1
 SUMMARY VOLUMETRIC BUDGET FOR GSFLOW 
 DATE: 10 07 1980              CUMULATIVE TIME STEP:       7
 MODFLOW STRESS PERIOD      2     CURRENT TIME STEP:       7     ITERATIONS:       6

 -----------------------------------------------------------------------------------

   CUMULATIVE VOLUMES               L**3   RATES FOR THIS TIME STEP           L**3/T
   ------------------                      ------------------------

                                     IN                                         IN
                                     --                                         --
        PRECIPITATION =                            PRECIPITATION =                  
           STREAMFLOW =                               STREAMFLOW =                  
     GW BOUNDARY FLOW =                         GW BOUNDARY FLOW =                  


                                    OUT                                        OUT
                                    ---                                        ---
   EVAPOTRANSPIRATION =          64707.50     EVAPOTRANSPIRATION =           9413.73
           STREAMFLOW =          42957.50             STREAMFLOW =           6065.76
     GW BOUNDARY FLOW =           4541.44       GW BOUNDARY FLOW =            648.70

   INFLOWS - OUTFLOWS =        -112206.44     INFLOWS - OUTFLOWS =         -16128.19
             --------                                   --------

 TOTAL STORAGE CHANGE =        -111810.83         STORAGE CHANGE =         -16067.60
       --------------                             --------------
         LAND SURFACE =                             LAND SURFACE =                  
            SOIL ZONE =          45808.48              SOIL ZONE =           6282.58
     UNSATURATED ZONE =        -144779.04       UNSATURATED ZONE =         -20361.32
       SATURATED ZONE =         -12840.27         SATURATED ZONE =          -1988.86

 OVERALL BUDGET ERROR =           -395.61           BUDGET ERROR =            -60.59


  PERCENT DISCREPANCY =             -0.35    PERCENT DISCREPANCY =             -0.38



1
 SUMMARY VOLUMETRIC BUDGET FOR GSFLOW 
 DATE: 10 14 1980              CUMULATIVE TIME STEP:      14
 MODFLOW STRESS PERIOD      2     CURRENT TIME STEP:      14     ITERATIONS:       6

 -----------------------------------------------------------------------------------

   CUMULATIVE VOLUMES               L**3   RATES FOR THIS TIME STEP           L**3/T
   ------------------                      ------------------------

                                     IN                                         IN
                                     --                                         --
        PRECIPITATION =         650780.39          PRECIPITATION =         164754.68
           STREAMFLOW =                               STREAMFLOW =                  
     GW BOUNDARY FLOW =                         GW BOUNDARY FLOW =                  


                                    OUT                                        OUT
                                    ---                                        ---
   EVAPOTRANSPIRATION =         161626.82     EVAPOTRANSPIRATION =          10547.15
           STREAMFLOW =          94485.34             STREAMFLOW =           7726.72
     GW BOUNDARY FLOW =           9082.96       GW BOUNDARY FLOW =            648.94

   INFLOWS - OUTFLOWS =         385585.28     INFLOWS - OUTFLOWS =         145831.88
             --------                                   --------

 TOTAL STORAGE CHANGE =         386424.15         STORAGE CHANGE =         145893.36
       --------------                             --------------
         LAND SURFACE =         183752.11           LAND SURFACE =         130549.80
            SOIL ZONE =         514737.60              SOIL ZONE =          37373.95
     UNSATURATED ZONE =        -284496.86       UNSATURATED ZONE =         -19624.98
       SATURATED ZONE =         -27568.70         SATURATED ZONE =          -2405.41

 OVERALL BUDGET ERROR =           -838.87           BUDGET ERROR =            -61.49


  PERCENT DISCREPANCY =             -0.13    PERCENT DISCREPANCY =             -0.04



1
 SUMMARY VOLUMETRIC BUDGET FOR GSFLOW 
 DATE: 10 21 1980              CUMULATIVE TIME STEP:      21
 MODFLOW STRESS PERIOD      2     CURRENT TIME STEP:      21     ITERATIONS:       6

 -----------------------------------------------------------------------------------

   CUMULATIVE VOLUMES               L**3   RATES FOR THIS TIME STEP           L**3/T
   ------------------                      ------------------------

                                     IN                                         IN
                                     --                                         --
        PRECIPITATION =         733156.23          PRECIPITATION =                  
           STREAMFLOW =                               STREAMFLOW =                  
     GW BOUNDARY FLOW =                         GW BOUNDARY FLOW =                  


                                    OUT                                        OUT
                                    ---                                        ---
   EVAPOTRANSPIRATION =         409860.82     EVAPOTRANSPIRATION =          36566.02
           STREAMFLOW =         145875.91             STREAMFLOW =           6877.92
     GW BOUNDARY FLOW =          13624.72       GW BOUNDARY FLOW =            648.74

   INFLOWS - OUTFLOWS =         163794.78     INFLOWS - OUTFLOWS =         -44092.68
             --------                                   --------

 TOTAL STORAGE CHANGE =         165084.42         STORAGE CHANGE =         -44022.17
       --------------                             --------------
         LAND SURFACE =                             LAND SURFACE =                  
            SOIL ZONE =         630343.88              SOIL ZONE =         -22161.48
     UNSATURATED ZONE =        -418693.28       UNSATURATED ZONE =         -18825.47
       SATURATED ZONE =         -46566.19         SATURATED ZONE =          -3035.23

 OVERALL BUDGET ERROR =          -1289.64           BUDGET ERROR =            -70.51


  PERCENT DISCREPANCY =             -0.18    PERCENT DISCREPANCY =             -0.16



1
 SUMMARY VOLUMETRIC BUDGET FOR GSFLOW 
 DATE: 10 28 1980              CUMULATIVE TIME STEP:      28
 MODFLOW STRESS PERIOD      2     CURRENT TIME STEP:      28     ITERATIONS:       6

 -----------------------------------------------------------------------------------

   CUMULATIVE VOLUMES               L**3   RATES FOR THIS TIME STEP           L**3/T
   ------------------                      ------------------------

                                     IN                                         IN
                                     --                                         --
        PRECIPITATION =        1070899.96          PRECIPITATION =                  
           STREAMFLOW =                               STREAMFLOW =                  
     GW BOUNDARY FLOW =                         GW BOUNDARY FLOW =                  


                                    OUT                                        OUT
                                    ---                                        ---
   EVAPOTRANSPIRATION =         588966.57     EVAPOTRANSPIRATION =          24794.04
           STREAMFLOW =         199269.65             STREAMFLOW =           7741.66
     GW BOUNDARY FLOW =          18165.84       GW BOUNDARY FLOW =            648.77

   INFLOWS - OUTFLOWS =         264497.90     INFLOWS - OUTFLOWS =         -33184.47
             --------                                   --------

 TOTAL STORAGE CHANGE =         266299.96         STORAGE CHANGE =         -33107.18
       --------------                             --------------
         LAND SURFACE =          20573.21           LAND SURFACE =         -29874.96
            SOIL ZONE =         862471.34              SOIL ZONE =          18301.35
     UNSATURATED ZONE =        -547437.02       UNSATURATED ZONE =         -18028.21
       SATURATED ZONE =         -69307.58         SATURATED ZONE =          -3505.37

 OVERALL BUDGET ERROR =          -1802.06           BUDGET ERROR =            -77.29


  PERCENT DISCREPANCY =             -0.17    PERCENT DISCREPANCY =             -0.23



1
 SUMMARY VOLUMETRIC BUDGET FOR GSFLOW 
 DATE: 11 04 1980              CUMULATIVE TIME STEP:      35
 MODFLOW STRESS PERIOD      2     CURRENT TIME STEP:      35     ITERATIONS:       9

 -----------------------------------------------------------------------------------

   CUMULATIVE VOLUMES               L**3   RATES FOR THIS TIME STEP           L**3/T
   ------------------                      ------------------------

                                     IN                                         IN
                                     --                                         --
        PRECIPITATION =        1070899.96          PRECIPITATION =                  
           STREAMFLOW =                               STREAMFLOW =                  
     GW BOUNDARY FLOW =                         GW BOUNDARY FLOW =                  


                                    OUT                                        OUT
                                    ---                                        ---
   EVAPOTRANSPIRATION =         863260.44     EVAPOTRANSPIRATION =          31691.74
           STREAMFLOW =         250228.63             STREAMFLOW =           6834.16
     GW BOUNDARY FLOW =          22706.60       GW BOUNDARY FLOW =            648.61

   INFLOWS - OUTFLOWS =         -65295.72     INFLOWS - OUTFLOWS =         -39174.50
             --------                                   --------

 TOTAL STORAGE CHANGE =         -63092.94         STORAGE CHANGE =         -39128.29
       --------------                             --------------
         LAND SURFACE =                             LAND SURFACE =                  
            SOIL ZONE =         704600.13              SOIL ZONE =         -17573.75
     UNSATURATED ZONE =        -670911.68       UNSATURATED ZONE =         -17355.88
       SATURATED ZONE =         -96781.40         SATURATED ZONE =          -4198.65

 OVERALL BUDGET ERROR =          -2202.78           BUDGET ERROR =            -46.22


  PERCENT DISCREPANCY =             -0.19    PERCENT DISCREPANCY =             -0.12



1
 SUMMARY VOLUMETRIC BUDGET FOR GSFLOW 
 DATE: 11 11 1980              CUMULATIVE TIME STEP:      42
 MODFLOW STRESS PERIOD      2     CURRENT TIME STEP:      42     ITERATIONS:       7

 -----------------------------------------------------------------------------------

   CUMULATIVE VOLUMES               L**3   RATES FOR THIS TIME STEP           L**3/T
   ------------------                      ------------------------

                                     IN                                         IN
                                     --                                         --
        PRECIPITATION =        1573759.34          PRECIPITATION =         255182.10
           STREAMFLOW =                               STREAMFLOW =                  
     GW BOUNDARY FLOW =                         GW BOUNDARY FLOW =                  


                                    OUT                                        OUT
                                    ---                                        ---
   EVAPOTRANSPIRATION =        1066451.25     EVAPOTRANSPIRATION =          14294.45
           STREAMFLOW =         305193.35             STREAMFLOW =          10480.20
     GW BOUNDARY FLOW =          27247.17       GW BOUNDARY FLOW =            648.82

   INFLOWS - OUTFLOWS =         174867.56     INFLOWS - OUTFLOWS =         229758.64
             --------                                   --------

 TOTAL STORAGE CHANGE =         177557.13         STORAGE CHANGE =         229813.93
       --------------                             --------------
         LAND SURFACE =          76836.74           LAND SURFACE =          76836.74
            SOIL ZONE =        1017177.93              SOIL ZONE =         173743.85
     UNSATURATED ZONE =        -789565.15       UNSATURATED ZONE =         -16598.58
       SATURATED ZONE =        -126892.40         SATURATED ZONE =          -4168.07

 OVERALL BUDGET ERROR =          -2689.57           BUDGET ERROR =            -55.30


  PERCENT DISCREPANCY =             -0.17    PERCENT DISCREPANCY =             -0.02



1
 SUMMARY VOLUMETRIC BUDGET FOR GSFLOW 
 DATE: 11 18 1980              CUMULATIVE TIME STEP:      49
 MODFLOW STRESS PERIOD      2     CURRENT TIME STEP:      49     ITERATIONS:       6

 -----------------------------------------------------------------------------------

   CUMULATIVE VOLUMES               L**3   RATES FOR THIS TIME STEP           L**3/T
   ------------------                      ------------------------

                                     IN                                         IN
                                     --                                         --
        PRECIPITATION =        1573759.34          PRECIPITATION =                  
           STREAMFLOW =                               STREAMFLOW =                  
     GW BOUNDARY FLOW =                         GW BOUNDARY FLOW =                  


                                    OUT                                        OUT
                                    ---                                        ---
   EVAPOTRANSPIRATION =        1161461.03     EVAPOTRANSPIRATION =          21275.16
           STREAMFLOW =         366137.80             STREAMFLOW =           9110.24
     GW BOUNDARY FLOW =          31788.80       GW BOUNDARY FLOW =            648.83

   INFLOWS - OUTFLOWS =          14371.71     INFLOWS - OUTFLOWS =         -31034.23
             --------                                   --------

 TOTAL STORAGE CHANGE =          17578.25         STORAGE CHANGE =         -30944.77
       --------------                             --------------
         LAND SURFACE =           5398.38           LAND SURFACE =          -7586.22
            SOIL ZONE =        1075752.03              SOIL ZONE =          -2503.79
     UNSATURATED ZONE =        -903552.79       UNSATURATED ZONE =         -16024.65
       SATURATED ZONE =        -160019.37         SATURATED ZONE =          -4830.11

 OVERALL BUDGET ERROR =          -3206.54           BUDGET ERROR =            -89.46


  PERCENT DISCREPANCY =             -0.20    PERCENT DISCREPANCY =             -0.29



1
 SUMMARY VOLUMETRIC BUDGET FOR GSFLOW 
 DATE: 11 25 1980              CUMULATIVE TIME STEP:      56
 MODFLOW STRESS PERIOD      2     CURRENT TIME STEP:      56     ITERATIONS:      10

 -----------------------------------------------------------------------------------

   CUMULATIVE VOLUMES               L**3   RATES FOR THIS TIME STEP           L**3/T
   ------------------                      ------------------------

                                     IN                                         IN
                                     --                                         --
        PRECIPITATION =        1648813.76          PRECIPITATION =                  
           STREAMFLOW =                               STREAMFLOW =                  
     GW BOUNDARY FLOW =                         GW BOUNDARY FLOW =                  


                                    OUT                                        OUT
                                    ---                                        ---
   EVAPOTRANSPIRATION =        1242305.22     EVAPOTRANSPIRATION =           9312.07
           STREAMFLOW =         431049.45             STREAMFLOW =           9529.31
     GW BOUNDARY FLOW =          36330.78       GW BOUNDARY FLOW =            648.88

   INFLOWS - OUTFLOWS =         -60871.70     INFLOWS - OUTFLOWS =         -19490.26
             --------                                   --------

 TOTAL STORAGE CHANGE =         -57110.51         STORAGE CHANGE =         -19449.31
       --------------                             --------------
         LAND SURFACE =          53187.47           LAND SURFACE =          -9260.11
            SOIL ZONE =        1099248.35              SOIL ZONE =          10636.22
     UNSATURATED ZONE =       -1013244.80       UNSATURATED ZONE =         -15391.22
       SATURATED ZONE =        -196301.53         SATURATED ZONE =          -5434.19

 OVERALL BUDGET ERROR =          -3761.19           BUDGET ERROR =            -40.96


  PERCENT DISCREPANCY =             -0.22    PERCENT DISCREPANCY =             -0.21



1
 SUMMARY VOLUMETRIC BUDGET FOR GSFLOW 
 DATE: 12 02 1980              CUMULATIVE TIME STEP:      63
 MODFLOW STRESS PERIOD      2     CURRENT TIME STEP:      63     ITERATIONS:       8

 -----------------------------------------------------------------------------------

   CUMULATIVE VOLUMES               L**3   RATES FOR THIS TIME STEP           L**3/T
   ------------------                      ------------------------

                                     IN                                         IN
                                     --                                         --
        PRECIPITATION =        2076620.74          PRECIPITATION =                  
           STREAMFLOW =                               STREAMFLOW =                  
     GW BOUNDARY FLOW =                         GW BOUNDARY FLOW =                  


                                    OUT                                        OUT
                                    ---                                        ---
   EVAPOTRANSPIRATION =        1445792.80     EVAPOTRANSPIRATION =          37029.13
           STREAMFLOW =         512082.44             STREAMFLOW =          14800.92
     GW BOUNDARY FLOW =          40874.21       GW BOUNDARY FLOW =            649.37

   INFLOWS - OUTFLOWS =          77871.29     INFLOWS - OUTFLOWS =         -52479.41
             --------                                   --------

 TOTAL STORAGE CHANGE =          82006.56         STORAGE CHANGE =         -52432.26
       --------------                             --------------
         LAND SURFACE =         139443.43           LAND SURFACE =         -82002.01
            SOIL ZONE =        1290876.33              SOIL ZONE =          47195.69
     UNSATURATED ZONE =       -1115267.87       UNSATURATED ZONE =         -13018.34
       SATURATED ZONE =        -233045.32         SATURATED ZONE =          -4607.60

 OVERALL BUDGET ERROR =          -4135.28           BUDGET ERROR =            -47.15


  PERCENT DISCREPANCY =             -0.20    PERCENT DISCREPANCY =             -0.09



1
 SUMMARY VOLUMETRIC BUDGET FOR GSFLOW 
 DATE: 12 09 1980              CUMULATIVE TIME STEP:      70
 MODFLOW STRESS PERIOD      2     CURRENT TIME STEP:      70     ITERATIONS:       7

 -----------------------------------------------------------------------------------

   CUMULATIVE VOLUMES               L**3   RATES FOR THIS TIME STEP           L**3/T
   ------------------                      ------------------------

                                     IN                                         IN
                                     --                                         --
        PRECIPITATION =        4284363.13          PRECIPITATION =                  
           STREAMFLOW =                               STREAMFLOW =                  
     GW BOUNDARY FLOW =                         GW BOUNDARY FLOW =                  


                                    OUT                                        OUT
                                    ---                                        ---
   EVAPOTRANSPIRATION =        1472348.29     EVAPOTRANSPIRATION =           4180.71
           STREAMFLOW =         609167.90             STREAMFLOW =          14253.77
     GW BOUNDARY FLOW =          45420.63       GW BOUNDARY FLOW =            649.59

   INFLOWS - OUTFLOWS =        2157426.31     INFLOWS - OUTFLOWS =         -19084.07
             --------                                   --------

 TOTAL STORAGE CHANGE =        2162003.35         STORAGE CHANGE =         -19020.97
       --------------                             --------------
         LAND SURFACE =        2319000.21           LAND SURFACE =          -4180.71
            SOIL ZONE =        1328678.29              SOIL ZONE =           5282.79
     UNSATURATED ZONE =       -1213808.63       UNSATURATED ZONE =         -14246.20
       SATURATED ZONE =        -271866.51         SATURATED ZONE =          -5876.85

 OVERALL BUDGET ERROR =          -4577.04           BUDGET ERROR =            -63.09


  PERCENT DISCREPANCY =             -0.11    PERCENT DISCREPANCY =             -0.33



1
 SUMMARY VOLUMETRIC BUDGET FOR GSFLOW 
 DATE: 12 16 1980              CUMULATIVE TIME STEP:      77
 MODFLOW STRESS PERIOD      2     CURRENT TIME STEP:      77     ITERATIONS:       7

 -----------------------------------------------------------------------------------

   CUMULATIVE VOLUMES               L**3   RATES FOR THIS TIME STEP           L**3/T
   ------------------                      ------------------------

                                     IN                                         IN
                                     --                                         --
        PRECIPITATION =        4284363.13          PRECIPITATION =                  
           STREAMFLOW =                               STREAMFLOW =                  
     GW BOUNDARY FLOW =                         GW BOUNDARY FLOW =                  


                                    OUT                                        OUT
                                    ---                                        ---
   EVAPOTRANSPIRATION =        1624098.94     EVAPOTRANSPIRATION =          35681.34
           STREAMFLOW =         729954.65             STREAMFLOW =          25540.99
     GW BOUNDARY FLOW =          49969.08       GW BOUNDARY FLOW =            650.26

   INFLOWS - OUTFLOWS =        1880340.46     INFLOWS - OUTFLOWS =         -61872.59
             --------                                   --------

 TOTAL STORAGE CHANGE =        1885324.16         STORAGE CHANGE =         -61811.88
       --------------                             --------------
         LAND SURFACE =        1981773.89           LAND SURFACE =        -138704.98
            SOIL ZONE =        1518287.09              SOIL ZONE =          89996.49
     UNSATURATED ZONE =       -1303103.09       UNSATURATED ZONE =          -8796.35
       SATURATED ZONE =        -311633.74         SATURATED ZONE =          -4307.04

 OVERALL BUDGET ERROR =          -4983.69           BUDGET ERROR =            -60.71


  PERCENT DISCREPANCY =             -0.12    PERCENT DISCREPANCY =             -0.10



1
 SUMMARY VOLUMETRIC BUDGET FOR GSFLOW 
 DATE: 12 23 1980              CUMULATIVE TIME STEP:      84
 MODFLOW STRESS PERIOD      2     CURRENT TIME STEP:      84     ITERATIONS:       9

 -----------------------------------------------------------------------------------

   CUMULATIVE VOLUMES               L**3   RATES FOR THIS TIME STEP           L**3/T
   ------------------                      ------------------------

                                     IN                                         IN
                                     --                                         --
        PRECIPITATION =        4516755.31          PRECIPITATION =                  
           STREAMFLOW =                               STREAMFLOW =                  
     GW BOUNDARY FLOW =                         GW BOUNDARY FLOW =                  


                                    OUT                                        OUT
                                    ---                                        ---
   EVAPOTRANSPIRATION =        1844129.99     EVAPOTRANSPIRATION =          37557.68
           STREAMFLOW =         964632.96             STREAMFLOW =          31422.49
     GW BOUNDARY FLOW =          54529.94       GW BOUNDARY FLOW =            652.01

   INFLOWS - OUTFLOWS =        1653462.42     INFLOWS - OUTFLOWS =         -69632.18
             --------                                   --------

 TOTAL STORAGE CHANGE =        1658702.54         STORAGE CHANGE =         -69599.45
       --------------                             --------------
         LAND SURFACE =        1331470.56           LAND SURFACE =         -52543.77
            SOIL ZONE =        2007042.29              SOIL ZONE =          -7817.85
     UNSATURATED ZONE =       -1341010.69       UNSATURATED ZONE =          -4783.78
       SATURATED ZONE =        -338799.62         SATURATED ZONE =          -4454.05

 OVERALL BUDGET ERROR =          -5240.11           BUDGET ERROR =            -32.73


  PERCENT DISCREPANCY =             -0.12    PERCENT DISCREPANCY =             -0.05



1
 SUMMARY VOLUMETRIC BUDGET FOR GSFLOW 
 DATE: 12 30 1980              CUMULATIVE TIME STEP:      91
 MODFLOW STRESS PERIOD      2     CURRENT TIME STEP:      91     ITERATIONS:      11

 -----------------------------------------------------------------------------------

   CUMULATIVE VOLUMES               L**3   RATES FOR THIS TIME STEP           L**3/T
   ------------------                      ------------------------

                                     IN                                         IN
                                     --                                         --
        PRECIPITATION =        4516755.31          PRECIPITATION =                  
           STREAMFLOW =                               STREAMFLOW =                  
     GW BOUNDARY FLOW =                         GW BOUNDARY FLOW =                  


                                    OUT                                        OUT
                                    ---                                        ---
   EVAPOTRANSPIRATION =        2224235.76     EVAPOTRANSPIRATION =          48689.89
           STREAMFLOW =        1215240.29             STREAMFLOW =          27499.02
     GW BOUNDARY FLOW =          59097.16       GW BOUNDARY FLOW =            652.41

   INFLOWS - OUTFLOWS =        1018182.11     INFLOWS - OUTFLOWS =         -76841.31
             --------                                   --------

 TOTAL STORAGE CHANGE =        1023546.82         STORAGE CHANGE =         -76832.31
       --------------                             --------------
         LAND SURFACE =         529446.97           LAND SURFACE =         -41358.17
            SOIL ZONE =        2201794.16              SOIL ZONE =         -26605.29
     UNSATURATED ZONE =       -1345076.24       UNSATURATED ZONE =          -4828.53
       SATURATED ZONE =        -362618.07         SATURATED ZONE =          -4040.33

 OVERALL BUDGET ERROR =          -5364.72           BUDGET ERROR =             -9.00


  PERCENT DISCREPANCY =             -0.12    PERCENT DISCREPANCY =             -0.01



1
 SUMMARY VOLUMETRIC BUDGET FOR GSFLOW 
 DATE: 01 06 1981              CUMULATIVE TIME STEP:      98
 MODFLOW STRESS PERIOD      2     CURRENT TIME STEP:      98     ITERATIONS:       8

 -----------------------------------------------------------------------------------

   CUMULATIVE VOLUMES               L**3   RATES FOR THIS TIME STEP           L**3/T
   ------------------                      ------------------------

                                     IN                                         IN
                                     --                                         --
        PRECIPITATION =        5004445.82          PRECIPITATION =                  
           STREAMFLOW =                               STREAMFLOW =                  
     GW BOUNDARY FLOW =                         GW BOUNDARY FLOW =                  


                                    OUT                                        OUT
                                    ---                                        ---
   EVAPOTRANSPIRATION =        2455729.13     EVAPOTRANSPIRATION =          21291.83
           STREAMFLOW =        1363027.47             STREAMFLOW =          20012.28
     GW BOUNDARY FLOW =          63658.07       GW BOUNDARY FLOW =            651.09

   INFLOWS - OUTFLOWS =        1122031.15     INFLOWS - OUTFLOWS =         -41955.20
             --------                                   --------

 TOTAL STORAGE CHANGE =        1127538.44         STORAGE CHANGE =         -41928.53
       --------------                             --------------
         LAND SURFACE =         783105.33           LAND SURFACE =         -28174.19
            SOIL ZONE =        2166372.82              SOIL ZONE =           4332.66
     UNSATURATED ZONE =       -1420334.10       UNSATURATED ZONE =         -12091.38
       SATURATED ZONE =        -401605.61         SATURATED ZONE =          -5995.62

 OVERALL BUDGET ERROR =          -5507.29           BUDGET ERROR =            -26.67


  PERCENT DISCREPANCY =             -0.11    PERCENT DISCREPANCY =             -0.06



1
 SUMMARY VOLUMETRIC BUDGET FOR GSFLOW 
 DATE: 01 13 1981              CUMULATIVE TIME STEP:     105
 MODFLOW STRESS PERIOD      2     CURRENT TIME STEP:     105     ITERATIONS:       7

 -----------------------------------------------------------------------------------

   CUMULATIVE VOLUMES               L**3   RATES FOR THIS TIME STEP           L**3/T
   ------------------                      ------------------------

                                     IN                                         IN
                                     --                                         --
        PRECIPITATION =        5004445.82          PRECIPITATION =                  
           STREAMFLOW =                               STREAMFLOW =                  
     GW BOUNDARY FLOW =                         GW BOUNDARY FLOW =                  


                                    OUT                                        OUT
                                    ---                                        ---
   EVAPOTRANSPIRATION =        2667557.80     EVAPOTRANSPIRATION =          43754.80
           STREAMFLOW =        1508663.17             STREAMFLOW =          20100.27
     GW BOUNDARY FLOW =          68214.68       GW BOUNDARY FLOW =            650.82

   INFLOWS - OUTFLOWS =         760010.16     INFLOWS - OUTFLOWS =         -64505.89
             --------                                   --------

 TOTAL STORAGE CHANGE =         765840.77         STORAGE CHANGE =         -64457.09
       --------------                             --------------
         LAND SURFACE =         556998.15           LAND SURFACE =         -38369.48
            SOIL ZONE =        2144223.39              SOIL ZONE =         -10081.97
     UNSATURATED ZONE =       -1489476.16       UNSATURATED ZONE =          -9368.78
       SATURATED ZONE =        -445904.61         SATURATED ZONE =          -6636.85

 OVERALL BUDGET ERROR =          -5830.61           BUDGET ERROR =            -48.80


  PERCENT DISCREPANCY =             -0.12    PERCENT DISCREPANCY =             -0.08



1
 SUMMARY VOLUMETRIC BUDGET FOR GSFLOW 
 DATE: 01 20 1981              CUMULATIVE TIME STEP:     112
 MODFLOW STRESS PERIOD      2     CURRENT TIME STEP:     112     ITERATIONS:       8

 -----------------------------------------------------------------------------------

   CUMULATIVE VOLUMES               L**3   RATES FOR THIS TIME STEP           L**3/T
   ------------------                      ------------------------

                                     IN                                         IN
                                     --                                         --
        PRECIPITATION =        5170468.48          PRECIPITATION =          41503.16
           STREAMFLOW =                               STREAMFLOW =                  
     GW BOUNDARY FLOW =                         GW BOUNDARY FLOW =                  


                                    OUT                                        OUT
                                    ---                                        ---
   EVAPOTRANSPIRATION =        2967625.05     EVAPOTRANSPIRATION =          54062.79
           STREAMFLOW =        1646980.21             STREAMFLOW =          19505.81
     GW BOUNDARY FLOW =          72769.19       GW BOUNDARY FLOW =            650.57

   INFLOWS - OUTFLOWS =         483094.03     INFLOWS - OUTFLOWS =         -32716.01
             --------                                   --------

 TOTAL STORAGE CHANGE =         489242.20         STORAGE CHANGE =         -32681.91
       --------------                             --------------
         LAND SURFACE =         392560.19           LAND SURFACE =           1262.98
            SOIL ZONE =        2117032.63              SOIL ZONE =         -23725.43
     UNSATURATED ZONE =       -1528751.75       UNSATURATED ZONE =          -3409.84
       SATURATED ZONE =        -491598.87         SATURATED ZONE =          -6809.62

 OVERALL BUDGET ERROR =          -6148.17           BUDGET ERROR =            -34.10


  PERCENT DISCREPANCY =             -0.12    PERCENT DISCREPANCY =             -0.05



1
 SUMMARY VOLUMETRIC BUDGET FOR GSFLOW 
 DATE: 01 27 1981              CUMULATIVE TIME STEP:     119
 MODFLOW STRESS PERIOD      2     CURRENT TIME STEP:     119     ITERATIONS:       8

 -----------------------------------------------------------------------------------

   CUMULATIVE VOLUMES               L**3   RATES FOR THIS TIME STEP           L**3/T
   ------------------                      ------------------------

                                     IN                                         IN
                                     --                                         --
        PRECIPITATION =        8646542.90          PRECIPITATION =        2936504.96
           STREAMFLOW =                               STREAMFLOW =                  
     GW BOUNDARY FLOW =                         GW BOUNDARY FLOW =                  


                                    OUT                                        OUT
                                    ---                                        ---
   EVAPOTRANSPIRATION =        3198646.42     EVAPOTRANSPIRATION =          12593.32
           STREAMFLOW =        1781564.64             STREAMFLOW =          17800.19
     GW BOUNDARY FLOW =          77322.46       GW BOUNDARY FLOW =            650.31

   INFLOWS - OUTFLOWS =        3589009.39     INFLOWS - OUTFLOWS =        2905461.14
             --------                                   --------

 TOTAL STORAGE CHANGE =        3595344.24         STORAGE CHANGE =        2905487.90
       --------------                             --------------
         LAND SURFACE =        3531533.77           LAND SURFACE =        2923911.72
            SOIL ZONE =        2149513.49              SOIL ZONE =          -4060.96
     UNSATURATED ZONE =       -1545271.52       UNSATURATED ZONE =          -7110.84
       SATURATED ZONE =        -540431.51         SATURATED ZONE =          -7252.02

 OVERALL BUDGET ERROR =          -6334.85           BUDGET ERROR =            -26.75


  PERCENT DISCREPANCY =             -0.07    PERCENT DISCREPANCY =             -0.00



1
 SUMMARY VOLUMETRIC BUDGET FOR GSFLOW 
 DATE: 02 03 1981              CUMULATIVE TIME STEP:     126
 MODFLOW STRESS PERIOD      2     CURRENT TIME STEP:     126     ITERATIONS:       8

 -----------------------------------------------------------------------------------

   CUMULATIVE VOLUMES               L**3   RATES FOR THIS TIME STEP           L**3/T
   ------------------                      ------------------------

                                     IN                                         IN
                                     --                                         --
        PRECIPITATION =        1.1739D+07          PRECIPITATION =                  
           STREAMFLOW =                               STREAMFLOW =                  
     GW BOUNDARY FLOW =                         GW BOUNDARY FLOW =                  


                                    OUT                                        OUT
                                    ---                                        ---
   EVAPOTRANSPIRATION =        3235994.90     EVAPOTRANSPIRATION =           8130.85
           STREAMFLOW =        1905227.08             STREAMFLOW =          17729.87
     GW BOUNDARY FLOW =          81874.01       GW BOUNDARY FLOW =            650.21

   INFLOWS - OUTFLOWS =        6515601.79     INFLOWS - OUTFLOWS =         -26510.93
             --------                                   --------

 TOTAL STORAGE CHANGE =        6522181.09         STORAGE CHANGE =         -26480.36
       --------------                             --------------
         LAND SURFACE =        6586340.18           LAND SURFACE =          -8130.85
            SOIL ZONE =        2147799.51              SOIL ZONE =            842.91
     UNSATURATED ZONE =       -1618142.61       UNSATURATED ZONE =         -11308.94
       SATURATED ZONE =        -593815.99         SATURATED ZONE =          -7883.48

 OVERALL BUDGET ERROR =          -6579.30           BUDGET ERROR =            -30.57


  PERCENT DISCREPANCY =             -0.06    PERCENT DISCREPANCY =             -0.12



1
 SUMMARY VOLUMETRIC BUDGET FOR GSFLOW 
 DATE: 02 10 1981              CUMULATIVE TIME STEP:     133
 MODFLOW STRESS PERIOD      2     CURRENT TIME STEP:     133     ITERATIONS:       7

 -----------------------------------------------------------------------------------

   CUMULATIVE VOLUMES               L**3   RATES FOR THIS TIME STEP           L**3/T
   ------------------                      ------------------------

                                     IN                                         IN
                                     --                                         --
        PRECIPITATION =        1.1838D+07          PRECIPITATION =                  
           STREAMFLOW =                               STREAMFLOW =                  
     GW BOUNDARY FLOW =                         GW BOUNDARY FLOW =                  


                                    OUT                                        OUT
                                    ---                                        ---
   EVAPOTRANSPIRATION =        3369797.25     EVAPOTRANSPIRATION =          34657.17
           STREAMFLOW =        2030142.29             STREAMFLOW =          17911.08
     GW BOUNDARY FLOW =          86425.52       GW BOUNDARY FLOW =            650.21

   INFLOWS - OUTFLOWS =        6351898.17     INFLOWS - OUTFLOWS =         -53218.46
             --------                                   --------

 TOTAL STORAGE CHANGE =        6358799.53         STORAGE CHANGE =         -53165.92
       --------------                             --------------
         LAND SURFACE =        6552103.29           LAND SURFACE =         -34657.17
            SOIL ZONE =        2153066.73              SOIL ZONE =            675.58
     UNSATURATED ZONE =       -1694759.53       UNSATURATED ZONE =         -10682.82
       SATURATED ZONE =        -651610.96         SATURATED ZONE =          -8501.51

 OVERALL BUDGET ERROR =          -6901.36           BUDGET ERROR =            -52.54


  PERCENT DISCREPANCY =             -0.06    PERCENT DISCREPANCY =             -0.10



1
 SUMMARY VOLUMETRIC BUDGET FOR GSFLOW 
 DATE: 02 17 1981              CUMULATIVE TIME STEP:     140
 MODFLOW STRESS PERIOD      2     CURRENT TIME STEP:     140     ITERATIONS:      14

 -----------------------------------------------------------------------------------

   CUMULATIVE VOLUMES               L**3   RATES FOR THIS TIME STEP           L**3/T
   ------------------                      ------------------------

                                     IN                                         IN
                                     --                                         --
        PRECIPITATION =        1.2765D+07          PRECIPITATION =          68928.68
           STREAMFLOW =                               STREAMFLOW =                  
     GW BOUNDARY FLOW =                         GW BOUNDARY FLOW =                  


                                    OUT                                        OUT
                                    ---                                        ---
   EVAPOTRANSPIRATION =        3717954.93     EVAPOTRANSPIRATION =          71030.99
           STREAMFLOW =        2550079.44             STREAMFLOW =         123199.58
     GW BOUNDARY FLOW =          90998.14       GW BOUNDARY FLOW =            656.66

   INFLOWS - OUTFLOWS =        6405948.15     INFLOWS - OUTFLOWS =        -125958.55
             --------                                   --------

 TOTAL STORAGE CHANGE =        6413085.01         STORAGE CHANGE =        -125952.93
       --------------                             --------------
         LAND SURFACE =        5604894.48           LAND SURFACE =        -287595.36
            SOIL ZONE =        2948484.76              SOIL ZONE =          82824.87
     UNSATURATED ZONE =       -1469354.37       UNSATURATED ZONE =          76639.99
       SATURATED ZONE =        -670939.86         SATURATED ZONE =           2177.57

 OVERALL BUDGET ERROR =          -7136.86           BUDGET ERROR =             -5.62


  PERCENT DISCREPANCY =             -0.06    PERCENT DISCREPANCY =             -0.00



1
 SUMMARY VOLUMETRIC BUDGET FOR GSFLOW 
 DATE: 02 24 1981              CUMULATIVE TIME STEP:     147
 MODFLOW STRESS PERIOD      2     CURRENT TIME STEP:     147     ITERATIONS:      14

 -----------------------------------------------------------------------------------

   CUMULATIVE VOLUMES               L**3   RATES FOR THIS TIME STEP           L**3/T
   ------------------                      ------------------------

                                     IN                                         IN
                                     --                                         --
        PRECIPITATION =        1.3179D+07          PRECIPITATION =         344647.71
           STREAMFLOW =                               STREAMFLOW =                  
     GW BOUNDARY FLOW =                         GW BOUNDARY FLOW =                  


                                    OUT                                        OUT
                                    ---                                        ---
   EVAPOTRANSPIRATION =        4094071.72     EVAPOTRANSPIRATION =          19832.91
           STREAMFLOW =        3122613.56             STREAMFLOW =          50894.59
     GW BOUNDARY FLOW =          95592.45       GW BOUNDARY FLOW =            655.29

   INFLOWS - OUTFLOWS =        5866280.72     INFLOWS - OUTFLOWS =         273264.92
             --------                                   --------

 TOTAL STORAGE CHANGE =        5873325.69         STORAGE CHANGE =         273250.21
       --------------                             --------------
         LAND SURFACE =        4925109.93           LAND SURFACE =         300251.60
            SOIL ZONE =        2696347.28              SOIL ZONE =         -57824.49
     UNSATURATED ZONE =       -1100206.78       UNSATURATED ZONE =          28497.12
       SATURATED ZONE =        -647924.74         SATURATED ZONE =           2325.98

 OVERALL BUDGET ERROR =          -7044.97           BUDGET ERROR =             14.71


  PERCENT DISCREPANCY =             -0.05    PERCENT DISCREPANCY =              0.00



1
 SUMMARY VOLUMETRIC BUDGET FOR GSFLOW 
 DATE: 03 03 1981              CUMULATIVE TIME STEP:     154
 MODFLOW STRESS PERIOD      2     CURRENT TIME STEP:     154     ITERATIONS:      11

 -----------------------------------------------------------------------------------

   CUMULATIVE VOLUMES               L**3   RATES FOR THIS TIME STEP           L**3/T
   ------------------                      ------------------------

                                     IN                                         IN
                                     --                                         --
        PRECIPITATION =        1.3447D+07          PRECIPITATION =                  
           STREAMFLOW =                               STREAMFLOW =                  
     GW BOUNDARY FLOW =                         GW BOUNDARY FLOW =                  


                                    OUT                                        OUT
                                    ---                                        ---
   EVAPOTRANSPIRATION =        4256743.67     EVAPOTRANSPIRATION =          44568.32
           STREAMFLOW =        3344642.85             STREAMFLOW =          27133.37
     GW BOUNDARY FLOW =         100165.42       GW BOUNDARY FLOW =            652.26

   INFLOWS - OUTFLOWS =        5745066.85     INFLOWS - OUTFLOWS =         -72353.95
             --------                                   --------

 TOTAL STORAGE CHANGE =        5751949.55         STORAGE CHANGE =         -72376.96
       --------------                             --------------
         LAND SURFACE =        5011972.63           LAND SURFACE =         -61722.17
            SOIL ZONE =        2485496.59              SOIL ZONE =            503.19
     UNSATURATED ZONE =       -1091848.40       UNSATURATED ZONE =          -8711.14
       SATURATED ZONE =        -653671.26         SATURATED ZONE =          -2446.84

 OVERALL BUDGET ERROR =          -6882.70           BUDGET ERROR =             23.00


  PERCENT DISCREPANCY =             -0.05    PERCENT DISCREPANCY =              0.03



1
 SUMMARY VOLUMETRIC BUDGET FOR GSFLOW 
 DATE: 03 10 1981              CUMULATIVE TIME STEP:     161
 MODFLOW STRESS PERIOD      2     CURRENT TIME STEP:     161     ITERATIONS:      11

 -----------------------------------------------------------------------------------

   CUMULATIVE VOLUMES               L**3   RATES FOR THIS TIME STEP           L**3/T
   ------------------                      ------------------------

                                     IN                                         IN
                                     --                                         --
        PRECIPITATION =        1.3493D+07          PRECIPITATION =                  
           STREAMFLOW =                               STREAMFLOW =                  
     GW BOUNDARY FLOW =                         GW BOUNDARY FLOW =                  


                                    OUT                                        OUT
                                    ---                                        ---
   EVAPOTRANSPIRATION =        4597918.63     EVAPOTRANSPIRATION =          71562.45
           STREAMFLOW =        3573450.86             STREAMFLOW =          42026.55
     GW BOUNDARY FLOW =         104731.07       GW BOUNDARY FLOW =            652.83

   INFLOWS - OUTFLOWS =        5216853.96     INFLOWS - OUTFLOWS =        -114241.83
             --------                                   --------

 TOTAL STORAGE CHANGE =        5223622.75         STORAGE CHANGE =        -114253.72
       --------------                             --------------
         LAND SURFACE =        4369723.85           LAND SURFACE =        -162552.80
            SOIL ZONE =        2590681.31              SOIL ZONE =          28487.09
     UNSATURATED ZONE =       -1067867.50       UNSATURATED ZONE =          20707.58
       SATURATED ZONE =        -668914.91         SATURATED ZONE =           -895.59

 OVERALL BUDGET ERROR =          -6768.79           BUDGET ERROR =             11.89


  PERCENT DISCREPANCY =             -0.05    PERCENT DISCREPANCY =              0.01



1
 SUMMARY VOLUMETRIC BUDGET FOR GSFLOW 
 DATE: 03 17 1981              CUMULATIVE TIME STEP:     168
 MODFLOW STRESS PERIOD      2     CURRENT TIME STEP:     168     ITERATIONS:       9

 -----------------------------------------------------------------------------------

   CUMULATIVE VOLUMES               L**3   RATES FOR THIS TIME STEP           L**3/T
   ------------------                      ------------------------

                                     IN                                         IN
                                     --                                         --
        PRECIPITATION =        1.3745D+07          PRECIPITATION =                  
           STREAMFLOW =                               STREAMFLOW =                  
     GW BOUNDARY FLOW =                         GW BOUNDARY FLOW =                  


                                    OUT                                        OUT
                                    ---                                        ---
   EVAPOTRANSPIRATION =        4957374.89     EVAPOTRANSPIRATION =          39557.19
           STREAMFLOW =        3796696.94             STREAMFLOW =          23718.23
     GW BOUNDARY FLOW =         109298.17       GW BOUNDARY FLOW =            651.87

   INFLOWS - OUTFLOWS =        4881132.82     INFLOWS - OUTFLOWS =         -63927.30
             --------                                   --------

 TOTAL STORAGE CHANGE =        4887778.85         STORAGE CHANGE =         -63932.73
       --------------                             --------------
         LAND SURFACE =        4198119.48           LAND SURFACE =         -39206.25
            SOIL ZONE =        2429666.10              SOIL ZONE =          -4419.43
     UNSATURATED ZONE =       -1052462.13       UNSATURATED ZONE =         -15685.20
       SATURATED ZONE =        -687544.60         SATURATED ZONE =          -4621.86

 OVERALL BUDGET ERROR =          -6646.04           BUDGET ERROR =              5.43


  PERCENT DISCREPANCY =             -0.05    PERCENT DISCREPANCY =              0.01



1
 SUMMARY VOLUMETRIC BUDGET FOR GSFLOW 
 DATE: 03 24 1981              CUMULATIVE TIME STEP:     175
 MODFLOW STRESS PERIOD      2     CURRENT TIME STEP:     175     ITERATIONS:      10

 -----------------------------------------------------------------------------------

   CUMULATIVE VOLUMES               L**3   RATES FOR THIS TIME STEP           L**3/T
   ------------------                      ------------------------

                                     IN                                         IN
                                     --                                         --
        PRECIPITATION =        1.4367D+07          PRECIPITATION =                  
           STREAMFLOW =                               STREAMFLOW =                  
     GW BOUNDARY FLOW =                         GW BOUNDARY FLOW =                  


                                    OUT                                        OUT
                                    ---                                        ---
   EVAPOTRANSPIRATION =        5310447.33     EVAPOTRANSPIRATION =          85696.82
           STREAMFLOW =        3962408.65             STREAMFLOW =          25246.87
     GW BOUNDARY FLOW =         113858.04       GW BOUNDARY FLOW =            651.30

   INFLOWS - OUTFLOWS =        4980042.22     INFLOWS - OUTFLOWS =        -111594.99
             --------                                   --------

 TOTAL STORAGE CHANGE =        4986672.50         STORAGE CHANGE =        -111598.56
       --------------                             --------------
         LAND SURFACE =        4528959.93           LAND SURFACE =         -63588.50
            SOIL ZONE =        2316417.97              SOIL ZONE =         -36086.50
     UNSATURATED ZONE =       -1133719.30       UNSATURATED ZONE =          -6422.91
       SATURATED ZONE =        -724986.11         SATURATED ZONE =          -5500.64

 OVERALL BUDGET ERROR =          -6630.28           BUDGET ERROR =              3.57


  PERCENT DISCREPANCY =             -0.05    PERCENT DISCREPANCY =              0.00



1
 SUMMARY VOLUMETRIC BUDGET FOR GSFLOW 
 DATE: 03 31 1981              CUMULATIVE TIME STEP:     182
 MODFLOW STRESS PERIOD      2     CURRENT TIME STEP:     182     ITERATIONS:      12

 -----------------------------------------------------------------------------------

   CUMULATIVE VOLUMES               L**3   RATES FOR THIS TIME STEP           L**3/T
   ------------------                      ------------------------

                                     IN                                         IN
                                     --                                         --
        PRECIPITATION =        1.5777D+07          PRECIPITATION =                  
           STREAMFLOW =                               STREAMFLOW =                  
     GW BOUNDARY FLOW =                         GW BOUNDARY FLOW =                  


                                    OUT                                        OUT
                                    ---                                        ---
   EVAPOTRANSPIRATION =        5735956.68     EVAPOTRANSPIRATION =          55421.24
           STREAMFLOW =        4413009.02             STREAMFLOW =          33473.63
     GW BOUNDARY FLOW =         118436.69       GW BOUNDARY FLOW =            653.16

   INFLOWS - OUTFLOWS =        5509363.79     INFLOWS - OUTFLOWS =         -89548.03
             --------                                   --------

 TOTAL STORAGE CHANGE =        5515893.66         STORAGE CHANGE =         -89568.10
       --------------                             --------------
         LAND SURFACE =        4697103.43           LAND SURFACE =         -55743.36
            SOIL ZONE =        2493977.34              SOIL ZONE =         -31826.11
     UNSATURATED ZONE =        -947155.55       UNSATURATED ZONE =            296.26
       SATURATED ZONE =        -728031.56         SATURATED ZONE =          -2294.88

 OVERALL BUDGET ERROR =          -6529.87           BUDGET ERROR =             20.07


  PERCENT DISCREPANCY =             -0.04    PERCENT DISCREPANCY =              0.02



1
 SUMMARY VOLUMETRIC BUDGET FOR GSFLOW 
 DATE: 04 07 1981              CUMULATIVE TIME STEP:     189
 MODFLOW STRESS PERIOD      2     CURRENT TIME STEP:     189     ITERATIONS:      10

 -----------------------------------------------------------------------------------

   CUMULATIVE VOLUMES               L**3   RATES FOR THIS TIME STEP           L**3/T
   ------------------                      ------------------------

                                     IN                                         IN
                                     --                                         --
        PRECIPITATION =        1.6121D+07          PRECIPITATION =                  
           STREAMFLOW =                               STREAMFLOW =                  
     GW BOUNDARY FLOW =                         GW BOUNDARY FLOW =                  


                                    OUT                                        OUT
                                    ---                                        ---
   EVAPOTRANSPIRATION =        6381561.27     EVAPOTRANSPIRATION =         106275.95
           STREAMFLOW =        4709825.91             STREAMFLOW =          42265.73
     GW BOUNDARY FLOW =         123009.86       GW BOUNDARY FLOW =            653.58

   INFLOWS - OUTFLOWS =        4907086.11     INFLOWS - OUTFLOWS =        -149195.26
             --------                                   --------

 TOTAL STORAGE CHANGE =        4913485.78         STORAGE CHANGE =        -149221.61
       --------------                             --------------
         LAND SURFACE =        4078016.32           LAND SURFACE =        -145758.59
            SOIL ZONE =        2453132.33              SOIL ZONE =         -13384.27
     UNSATURATED ZONE =        -881396.93       UNSATURATED ZONE =          10626.68
       SATURATED ZONE =        -736265.95         SATURATED ZONE =           -705.43

 OVERALL BUDGET ERROR =          -6399.67           BUDGET ERROR =             26.35


  PERCENT DISCREPANCY =             -0.04    PERCENT DISCREPANCY =              0.02



1
 SUMMARY VOLUMETRIC BUDGET FOR GSFLOW 
 DATE: 04 14 1981              CUMULATIVE TIME STEP:     196
 MODFLOW STRESS PERIOD      2     CURRENT TIME STEP:     196     ITERATIONS:      13

 -----------------------------------------------------------------------------------

   CUMULATIVE VOLUMES               L**3   RATES FOR THIS TIME STEP           L**3/T
   ------------------                      ------------------------

                                     IN                                         IN
                                     --                                         --
        PRECIPITATION =        1.6121D+07          PRECIPITATION =                  
           STREAMFLOW =                               STREAMFLOW =                  
     GW BOUNDARY FLOW =                         GW BOUNDARY FLOW =                  


                                    OUT                                        OUT
                                    ---                                        ---
   EVAPOTRANSPIRATION =        7308592.31     EVAPOTRANSPIRATION =         190847.08
           STREAMFLOW =        5035108.08             STREAMFLOW =          55413.29
     GW BOUNDARY FLOW =         127584.44       GW BOUNDARY FLOW =            653.52

   INFLOWS - OUTFLOWS =        3650198.32     INFLOWS - OUTFLOWS =        -246913.89
             --------                                   --------

 TOTAL STORAGE CHANGE =        3656435.30         STORAGE CHANGE =        -246930.81
       --------------                             --------------
         LAND SURFACE =        2766600.67           LAND SURFACE =        -261667.29
            SOIL ZONE =        2411104.01              SOIL ZONE =          -6969.18
     UNSATURATED ZONE =        -783700.44       UNSATURATED ZONE =          20543.19
       SATURATED ZONE =        -737568.94         SATURATED ZONE =           1162.47

 OVERALL BUDGET ERROR =          -6236.98           BUDGET ERROR =             16.93


  PERCENT DISCREPANCY =             -0.04    PERCENT DISCREPANCY =              0.01



1
 SUMMARY VOLUMETRIC BUDGET FOR GSFLOW 
 DATE: 04 21 1981              CUMULATIVE TIME STEP:     203
 MODFLOW STRESS PERIOD      2     CURRENT TIME STEP:     203     ITERATIONS:      13

 -----------------------------------------------------------------------------------

   CUMULATIVE VOLUMES               L**3   RATES FOR THIS TIME STEP           L**3/T
   ------------------                      ------------------------

                                     IN                                         IN
                                     --                                         --
        PRECIPITATION =        1.6310D+07          PRECIPITATION =                  
           STREAMFLOW =                               STREAMFLOW =                  
     GW BOUNDARY FLOW =                         GW BOUNDARY FLOW =                  


                                    OUT                                        OUT
                                    ---                                        ---
   EVAPOTRANSPIRATION =        8401040.46     EVAPOTRANSPIRATION =         161783.39
           STREAMFLOW =        5377181.01             STREAMFLOW =          46261.41
     GW BOUNDARY FLOW =         132155.22       GW BOUNDARY FLOW =            652.58

   INFLOWS - OUTFLOWS =        2399880.73     INFLOWS - OUTFLOWS =        -208697.38
             --------                                   --------

 TOTAL STORAGE CHANGE =        2405970.96         STORAGE CHANGE =        -208721.11
       --------------                             --------------
         LAND SURFACE =        1526141.72           LAND SURFACE =        -128414.83
            SOIL ZONE =        2260710.79              SOIL ZONE =        -101030.20
     UNSATURATED ZONE =        -653817.97       UNSATURATED ZONE =          18639.04
       SATURATED ZONE =        -727063.58         SATURATED ZONE =           2084.88

 OVERALL BUDGET ERROR =          -6090.23           BUDGET ERROR =             23.73


  PERCENT DISCREPANCY =             -0.04    PERCENT DISCREPANCY =              0.01



1
 SUMMARY VOLUMETRIC BUDGET FOR GSFLOW 
 DATE: 04 28 1981              CUMULATIVE TIME STEP:     210
 MODFLOW STRESS PERIOD      2     CURRENT TIME STEP:     210     ITERATIONS:      13

 -----------------------------------------------------------------------------------

   CUMULATIVE VOLUMES               L**3   RATES FOR THIS TIME STEP           L**3/T
   ------------------                      ------------------------

                                     IN                                         IN
                                     --                                         --
        PRECIPITATION =        1.6515D+07          PRECIPITATION =                  
           STREAMFLOW =                               STREAMFLOW =                  
     GW BOUNDARY FLOW =                         GW BOUNDARY FLOW =                  


                                    OUT                                        OUT
                                    ---                                        ---
   EVAPOTRANSPIRATION =        9681658.79     EVAPOTRANSPIRATION =         204108.76
           STREAMFLOW =        5586255.24             STREAMFLOW =          23064.55
     GW BOUNDARY FLOW =         136714.18       GW BOUNDARY FLOW =            650.33

   INFLOWS - OUTFLOWS =        1110818.74     INFLOWS - OUTFLOWS =        -227823.64
             --------                                   --------

 TOTAL STORAGE CHANGE =        1116724.16         STORAGE CHANGE =        -227851.66
       --------------                             --------------
         LAND SURFACE =         765041.90           LAND SURFACE =         -86581.37
            SOIL ZONE =        1720689.22              SOIL ZONE =        -136444.59
     UNSATURATED ZONE =        -640127.29       UNSATURATED ZONE =          -3735.33
       SATURATED ZONE =        -728879.66         SATURATED ZONE =          -1090.37

 OVERALL BUDGET ERROR =          -5905.42           BUDGET ERROR =             28.02


  PERCENT DISCREPANCY =             -0.04    PERCENT DISCREPANCY =              0.01



1
 SUMMARY VOLUMETRIC BUDGET FOR GSFLOW 
 DATE: 05 05 1981              CUMULATIVE TIME STEP:     217
 MODFLOW STRESS PERIOD      2     CURRENT TIME STEP:     217     ITERATIONS:      14

 -----------------------------------------------------------------------------------

   CUMULATIVE VOLUMES               L**3   RATES FOR THIS TIME STEP           L**3/T
   ------------------                      ------------------------

                                     IN                                         IN
                                     --                                         --
        PRECIPITATION =        1.6515D+07          PRECIPITATION =                  
           STREAMFLOW =                               STREAMFLOW =                  
     GW BOUNDARY FLOW =                         GW BOUNDARY FLOW =                  


                                    OUT                                        OUT
                                    ---                                        ---
   EVAPOTRANSPIRATION =        1.0588D+07     EVAPOTRANSPIRATION =          57981.20
           STREAMFLOW =        5684613.00             STREAMFLOW =          10181.63
     GW BOUNDARY FLOW =         141259.47       GW BOUNDARY FLOW =            648.66

   INFLOWS - OUTFLOWS =         101108.81     INFLOWS - OUTFLOWS =         -68811.49
             --------                                   --------

 TOTAL STORAGE CHANGE =         106915.23         STORAGE CHANGE =         -68824.41
       --------------                             --------------
         LAND SURFACE =         399244.39           LAND SURFACE =         -19315.26
            SOIL ZONE =        1185819.42              SOIL ZONE =         -30614.09
     UNSATURATED ZONE =        -728839.50       UNSATURATED ZONE =         -15701.12
       SATURATED ZONE =        -749309.08         SATURATED ZONE =          -3193.94

 OVERALL BUDGET ERROR =          -5806.41           BUDGET ERROR =             12.92


  PERCENT DISCREPANCY =             -0.04    PERCENT DISCREPANCY =              0.02



1
 SUMMARY VOLUMETRIC BUDGET FOR GSFLOW 
 DATE: 05 12 1981              CUMULATIVE TIME STEP:     224
 MODFLOW STRESS PERIOD      2     CURRENT TIME STEP:     224     ITERATIONS:      11

 -----------------------------------------------------------------------------------

   CUMULATIVE VOLUMES               L**3   RATES FOR THIS TIME STEP           L**3/T
   ------------------                      ------------------------

                                     IN                                         IN
                                     --                                         --
        PRECIPITATION =        1.6515D+07          PRECIPITATION =                  
           STREAMFLOW =                               STREAMFLOW =                  
     GW BOUNDARY FLOW =                         GW BOUNDARY FLOW =                  


                                    OUT                                        OUT
                                    ---                                        ---
   EVAPOTRANSPIRATION =        1.1120D+07     EVAPOTRANSPIRATION =          94905.63
           STREAMFLOW =        5752600.55             STREAMFLOW =          10223.82
     GW BOUNDARY FLOW =         145797.42       GW BOUNDARY FLOW =            648.15

   INFLOWS - OUTFLOWS =        -502534.57     INFLOWS - OUTFLOWS =        -105777.60
             --------                                   --------

 TOTAL STORAGE CHANGE =        -496824.45         STORAGE CHANGE =        -105792.34
       --------------                             --------------
         LAND SURFACE =         236028.85           LAND SURFACE =         -28466.58
            SOIL ZONE =         878398.19              SOIL ZONE =         -59031.84
     UNSATURATED ZONE =        -829502.41       UNSATURATED ZONE =         -12708.08
       SATURATED ZONE =        -781749.08         SATURATED ZONE =          -5585.84

 OVERALL BUDGET ERROR =          -5710.11           BUDGET ERROR =             14.74


  PERCENT DISCREPANCY =             -0.03    PERCENT DISCREPANCY =              0.01



1
 SUMMARY VOLUMETRIC BUDGET FOR GSFLOW 
 DATE: 05 19 1981              CUMULATIVE TIME STEP:     231
 MODFLOW STRESS PERIOD      2     CURRENT TIME STEP:     231     ITERATIONS:      14

 -----------------------------------------------------------------------------------

   CUMULATIVE VOLUMES               L**3   RATES FOR THIS TIME STEP           L**3/T
   ------------------                      ------------------------

                                     IN                                         IN
                                     --                                         --
        PRECIPITATION =        1.7837D+07          PRECIPITATION =         169047.83
           STREAMFLOW =                               STREAMFLOW =                  
     GW BOUNDARY FLOW =                         GW BOUNDARY FLOW =                  


                                    OUT                                        OUT
                                    ---                                        ---
   EVAPOTRANSPIRATION =        1.1542D+07     EVAPOTRANSPIRATION =          34209.10
           STREAMFLOW =        5871956.06             STREAMFLOW =          21929.28
     GW BOUNDARY FLOW =         150336.17       GW BOUNDARY FLOW =            649.25

   INFLOWS - OUTFLOWS =         273234.09     INFLOWS - OUTFLOWS =         112260.20
             --------                                   --------

 TOTAL STORAGE CHANGE =         278887.83         STORAGE CHANGE =         112255.48
       --------------                             --------------
         LAND SURFACE =         199378.22           LAND SURFACE =          20104.58
            SOIL ZONE =        1795970.17              SOIL ZONE =          99913.90
     UNSATURATED ZONE =        -890962.45       UNSATURATED ZONE =           -832.69
       SATURATED ZONE =        -825498.11         SATURATED ZONE =          -6930.30

 OVERALL BUDGET ERROR =          -5653.75           BUDGET ERROR =              4.72


  PERCENT DISCREPANCY =             -0.03    PERCENT DISCREPANCY =              0.00



1
 SUMMARY VOLUMETRIC BUDGET FOR GSFLOW 
 DATE: 05 26 1981              CUMULATIVE TIME STEP:     238
 MODFLOW STRESS PERIOD      2     CURRENT TIME STEP:     238     ITERATIONS:      13

 -----------------------------------------------------------------------------------

   CUMULATIVE VOLUMES               L**3   RATES FOR THIS TIME STEP           L**3/T
   ------------------                      ------------------------

                                     IN                                         IN
                                     --                                         --
        PRECIPITATION =        1.8252D+07          PRECIPITATION =         284301.98
           STREAMFLOW =                               STREAMFLOW =                  
     GW BOUNDARY FLOW =                         GW BOUNDARY FLOW =                  


                                    OUT                                        OUT
                                    ---                                        ---
   EVAPOTRANSPIRATION =        1.2438D+07     EVAPOTRANSPIRATION =         143528.55
           STREAMFLOW =        5971163.67             STREAMFLOW =          17716.52
     GW BOUNDARY FLOW =         154875.74       GW BOUNDARY FLOW =            648.32

   INFLOWS - OUTFLOWS =        -311579.80     INFLOWS - OUTFLOWS =         122408.59
             --------                                   --------

 TOTAL STORAGE CHANGE =        -305967.67         STORAGE CHANGE =         122402.40
       --------------                             --------------
         LAND SURFACE =         121447.14           LAND SURFACE =          -8077.84
            SOIL ZONE =        1400473.35              SOIL ZONE =         148019.13
     UNSATURATED ZONE =        -949141.20       UNSATURATED ZONE =         -10134.78
       SATURATED ZONE =        -878746.95         SATURATED ZONE =          -7404.10

 OVERALL BUDGET ERROR =          -5612.14           BUDGET ERROR =              6.19


  PERCENT DISCREPANCY =             -0.03    PERCENT DISCREPANCY =              0.00



1
 SUMMARY VOLUMETRIC BUDGET FOR GSFLOW 
 DATE: 06 02 1981              CUMULATIVE TIME STEP:     245
 MODFLOW STRESS PERIOD      2     CURRENT TIME STEP:     245     ITERATIONS:      12

 -----------------------------------------------------------------------------------

   CUMULATIVE VOLUMES               L**3   RATES FOR THIS TIME STEP           L**3/T
   ------------------                      ------------------------

                                     IN                                         IN
                                     --                                         --
        PRECIPITATION =        1.8318D+07          PRECIPITATION =          50867.39
           STREAMFLOW =                               STREAMFLOW =                  
     GW BOUNDARY FLOW =                         GW BOUNDARY FLOW =                  


                                    OUT                                        OUT
                                    ---                                        ---
   EVAPOTRANSPIRATION =        1.3237D+07     EVAPOTRANSPIRATION =          74880.24
           STREAMFLOW =        6036750.23             STREAMFLOW =           7535.14
     GW BOUNDARY FLOW =         159410.04       GW BOUNDARY FLOW =            647.37

   INFLOWS - OUTFLOWS =       -1115314.03     INFLOWS - OUTFLOWS =         -32195.36
             --------                                   --------

 TOTAL STORAGE CHANGE =       -1109725.57         STORAGE CHANGE =         -32198.23
       --------------                             --------------
         LAND SURFACE =          76065.81           LAND SURFACE =          28539.47
            SOIL ZONE =         783601.31              SOIL ZONE =         -39402.05
     UNSATURATED ZONE =       -1029943.77       UNSATURATED ZONE =         -12292.21
       SATURATED ZONE =        -939448.92         SATURATED ZONE =          -9043.44

 OVERALL BUDGET ERROR =          -5588.47           BUDGET ERROR =              2.87


  PERCENT DISCREPANCY =             -0.03    PERCENT DISCREPANCY =              0.00



1
 SUMMARY VOLUMETRIC BUDGET FOR GSFLOW 
 DATE: 06 09 1981              CUMULATIVE TIME STEP:     252
 MODFLOW STRESS PERIOD      2     CURRENT TIME STEP:     252     ITERATIONS:      15

 -----------------------------------------------------------------------------------

   CUMULATIVE VOLUMES               L**3   RATES FOR THIS TIME STEP           L**3/T
   ------------------                      ------------------------

                                     IN                                         IN
                                     --                                         --
        PRECIPITATION =        1.8318D+07          PRECIPITATION =                  
           STREAMFLOW =                               STREAMFLOW =                  
     GW BOUNDARY FLOW =                         GW BOUNDARY FLOW =                  


                                    OUT                                        OUT
                                    ---                                        ---
   EVAPOTRANSPIRATION =        1.3712D+07     EVAPOTRANSPIRATION =          49921.65
           STREAMFLOW =        6083332.85             STREAMFLOW =           6279.51
     GW BOUNDARY FLOW =         163939.61       GW BOUNDARY FLOW =            646.92

   INFLOWS - OUTFLOWS =       -1641364.59     INFLOWS - OUTFLOWS =         -56848.08
             --------                                   --------

 TOTAL STORAGE CHANGE =       -1635753.95         STORAGE CHANGE =         -56851.56
       --------------                             --------------
         LAND SURFACE =          13609.96           LAND SURFACE =          -3000.14
            SOIL ZONE =         473137.81              SOIL ZONE =         -31862.38
     UNSATURATED ZONE =       -1116165.54       UNSATURATED ZONE =         -12155.02
       SATURATED ZONE =       -1006336.18         SATURATED ZONE =          -9834.02

 OVERALL BUDGET ERROR =          -5610.64           BUDGET ERROR =              3.48


  PERCENT DISCREPANCY =             -0.03    PERCENT DISCREPANCY =              0.01



1
 SUMMARY VOLUMETRIC BUDGET FOR GSFLOW 
 DATE: 06 16 1981              CUMULATIVE TIME STEP:     259
 MODFLOW STRESS PERIOD      2     CURRENT TIME STEP:     259     ITERATIONS:      13

 -----------------------------------------------------------------------------------

   CUMULATIVE VOLUMES               L**3   RATES FOR THIS TIME STEP           L**3/T
   ------------------                      ------------------------

                                     IN                                         IN
                                     --                                         --
        PRECIPITATION =        1.8318D+07          PRECIPITATION =                  
           STREAMFLOW =                               STREAMFLOW =                  
     GW BOUNDARY FLOW =                         GW BOUNDARY FLOW =                  


                                    OUT                                        OUT
                                    ---                                        ---
   EVAPOTRANSPIRATION =        1.3902D+07     EVAPOTRANSPIRATION =          44005.49
           STREAMFLOW =        6126045.95             STREAMFLOW =           6036.79
     GW BOUNDARY FLOW =         168467.16       GW BOUNDARY FLOW =            646.71

   INFLOWS - OUTFLOWS =       -1877944.78     INFLOWS - OUTFLOWS =         -50689.00
             --------                                   --------

 TOTAL STORAGE CHANGE =       -1872366.60         STORAGE CHANGE =         -50694.87
       --------------                             --------------
         LAND SURFACE =           6267.42           LAND SURFACE =          -1304.38
            SOIL ZONE =         396517.12              SOIL ZONE =         -27712.36
     UNSATURATED ZONE =       -1198805.77       UNSATURATED ZONE =         -11656.17
       SATURATED ZONE =       -1076345.36         SATURATED ZONE =         -10021.95

 OVERALL BUDGET ERROR =          -5578.18           BUDGET ERROR =              5.87


  PERCENT DISCREPANCY =             -0.03    PERCENT DISCREPANCY =              0.01



1
 SUMMARY VOLUMETRIC BUDGET FOR GSFLOW 
 DATE: 06 23 1981              CUMULATIVE TIME STEP:     266
 MODFLOW STRESS PERIOD      2     CURRENT TIME STEP:     266     ITERATIONS:      10

 -----------------------------------------------------------------------------------

   CUMULATIVE VOLUMES               L**3   RATES FOR THIS TIME STEP           L**3/T
   ------------------                      ------------------------

                                     IN                                         IN
                                     --                                         --
        PRECIPITATION =        1.8318D+07          PRECIPITATION =                  
           STREAMFLOW =                               STREAMFLOW =                  
     GW BOUNDARY FLOW =                         GW BOUNDARY FLOW =                  


                                    OUT                                        OUT
                                    ---                                        ---
   EVAPOTRANSPIRATION =        1.4177D+07     EVAPOTRANSPIRATION =          32513.33
           STREAMFLOW =        6167605.70             STREAMFLOW =           5881.31
     GW BOUNDARY FLOW =         172993.45       GW BOUNDARY FLOW =            646.54

   INFLOWS - OUTFLOWS =       -2199540.44     INFLOWS - OUTFLOWS =         -39041.18
             --------                                   --------

 TOTAL STORAGE CHANGE =       -2193966.83         STORAGE CHANGE =         -39032.84
       --------------                             --------------
         LAND SURFACE =                             LAND SURFACE =                  
            SOIL ZONE =         231773.62              SOIL ZONE =         -17645.35
     UNSATURATED ZONE =       -1278100.30       UNSATURATED ZONE =         -10983.57
       SATURATED ZONE =       -1147640.16         SATURATED ZONE =         -10403.92

 OVERALL BUDGET ERROR =          -5573.61           BUDGET ERROR =             -8.34


  PERCENT DISCREPANCY =             -0.03    PERCENT DISCREPANCY =             -0.02



1
 SUMMARY VOLUMETRIC BUDGET FOR GSFLOW 
 DATE: 06 30 1981              CUMULATIVE TIME STEP:     273
 MODFLOW STRESS PERIOD      2     CURRENT TIME STEP:     273     ITERATIONS:      13

 -----------------------------------------------------------------------------------

   CUMULATIVE VOLUMES               L**3   RATES FOR THIS TIME STEP           L**3/T
   ------------------                      ------------------------

                                     IN                                         IN
[...]
                                    ---                                        ---
   EVAPOTRANSPIRATION =        2.9680D+08     EVAPOTRANSPIRATION =          41042.98
           STREAMFLOW =        1.7419D+08             STREAMFLOW =           6659.74
     GW BOUNDARY FLOW =        3735320.42       GW BOUNDARY FLOW =            650.79

   INFLOWS - OUTFLOWS =       -9659542.26     INFLOWS - OUTFLOWS =         -48353.51
             --------                                   --------

 TOTAL STORAGE CHANGE =       -9564620.41         STORAGE CHANGE =         -48378.46
       --------------                             --------------
         LAND SURFACE =         152692.44           LAND SURFACE =          -6818.24
            SOIL ZONE =         232008.52              SOIL ZONE =         -21119.90
     UNSATURATED ZONE =        6091457.91       UNSATURATED ZONE =         -26440.90
       SATURATED ZONE =       -1.6041D+07         SATURATED ZONE =           6000.58

 OVERALL BUDGET ERROR =         -94921.85           BUDGET ERROR =             24.95


  PERCENT DISCREPANCY =             -0.02    PERCENT DISCREPANCY =              0.05



1
 SUMMARY VOLUMETRIC BUDGET FOR GSFLOW 
 DATE: 07 30 1996              CUMULATIVE TIME STEP:    5782
 MODFLOW STRESS PERIOD      2     CURRENT TIME STEP:    5782     ITERATIONS:      14

 -----------------------------------------------------------------------------------

   CUMULATIVE VOLUMES               L**3   RATES FOR THIS TIME STEP           L**3/T
   ------------------                      ------------------------

                                     IN                                         IN
                                     --                                         --
        PRECIPITATION =        4.6511D+08          PRECIPITATION =                  
           STREAMFLOW =                               STREAMFLOW =                  
     GW BOUNDARY FLOW =                         GW BOUNDARY FLOW =                  


                                    OUT                                        OUT
                                    ---                                        ---
   EVAPOTRANSPIRATION =        2.9706D+08     EVAPOTRANSPIRATION =          30665.66
           STREAMFLOW =        1.7423D+08             STREAMFLOW =           6510.88
     GW BOUNDARY FLOW =        3739874.28       GW BOUNDARY FLOW =            650.38

   INFLOWS - OUTFLOWS =       -9924728.65     INFLOWS - OUTFLOWS =         -37826.92
             --------                                   --------

 TOTAL STORAGE CHANGE =       -9829951.34         STORAGE CHANGE =         -37850.31
       --------------                             --------------
         LAND SURFACE =         112099.96           LAND SURFACE =          -4929.06
            SOIL ZONE =         149264.10              SOIL ZONE =         -12757.20
     UNSATURATED ZONE =        5913718.11       UNSATURATED ZONE =         -24695.52
       SATURATED ZONE =       -1.6005D+07         SATURATED ZONE =           4531.48

 OVERALL BUDGET ERROR =         -94777.31           BUDGET ERROR =             23.40


  PERCENT DISCREPANCY =             -0.02    PERCENT DISCREPANCY =              0.06



1
 SUMMARY VOLUMETRIC BUDGET FOR GSFLOW 
 DATE: 08 06 1996              CUMULATIVE TIME STEP:    5789
 MODFLOW STRESS PERIOD      2     CURRENT TIME STEP:    5789     ITERATIONS:      14

 -----------------------------------------------------------------------------------

   CUMULATIVE VOLUMES               L**3   RATES FOR THIS TIME STEP           L**3/T
   ------------------                      ------------------------

                                     IN                                         IN
                                     --                                         --
        PRECIPITATION =        4.6511D+08          PRECIPITATION =                  
           STREAMFLOW =                               STREAMFLOW =                  
     GW BOUNDARY FLOW =                         GW BOUNDARY FLOW =                  


                                    OUT                                        OUT
                                    ---                                        ---
   EVAPOTRANSPIRATION =        2.9721D+08     EVAPOTRANSPIRATION =          18743.73
           STREAMFLOW =        1.7428D+08             STREAMFLOW =           6312.65
     GW BOUNDARY FLOW =        3744426.77       GW BOUNDARY FLOW =            650.32

   INFLOWS - OUTFLOWS =       -1.0124D+07     INFLOWS - OUTFLOWS =         -25706.70
             --------                                   --------

 TOTAL STORAGE CHANGE =       -1.0030D+07         STORAGE CHANGE =         -25725.41
       --------------                             --------------
         LAND SURFACE =          85235.58           LAND SURFACE =          -3353.13
            SOIL ZONE =         116338.99              SOIL ZONE =          -2491.45
     UNSATURATED ZONE =        5744458.13       UNSATURATED ZONE =         -23764.76
       SATURATED ZONE =       -1.5976D+07         SATURATED ZONE =           3883.93

 OVERALL BUDGET ERROR =         -94623.09           BUDGET ERROR =             18.72


  PERCENT DISCREPANCY =             -0.02    PERCENT DISCREPANCY =              0.07



1
 SUMMARY VOLUMETRIC BUDGET FOR GSFLOW 
 DATE: 08 13 1996              CUMULATIVE TIME STEP:    5796
 MODFLOW STRESS PERIOD      2     CURRENT TIME STEP:    5796     ITERATIONS:      14

 -----------------------------------------------------------------------------------

   CUMULATIVE VOLUMES               L**3   RATES FOR THIS TIME STEP           L**3/T
   ------------------                      ------------------------

                                     IN                                         IN
                                     --                                         --
        PRECIPITATION =        4.6531D+08          PRECIPITATION =          54456.73
           STREAMFLOW =                               STREAMFLOW =                  
     GW BOUNDARY FLOW =                         GW BOUNDARY FLOW =                  


                                    OUT                                        OUT
                                    ---                                        ---
   EVAPOTRANSPIRATION =        2.9739D+08     EVAPOTRANSPIRATION =          36106.46
           STREAMFLOW =        1.7432D+08             STREAMFLOW =           7504.25
     GW BOUNDARY FLOW =        3748978.58       GW BOUNDARY FLOW =            650.28

   INFLOWS - OUTFLOWS =       -1.0153D+07     INFLOWS - OUTFLOWS =          10195.74
             --------                                   --------

 TOTAL STORAGE CHANGE =       -1.0059D+07         STORAGE CHANGE =          10170.96
       --------------                             --------------
         LAND SURFACE =          92673.79           LAND SURFACE =          -3493.45
            SOIL ZONE =         217439.99              SOIL ZONE =          33161.23
     UNSATURATED ZONE =        5582618.00       UNSATURATED ZONE =         -22919.62
       SATURATED ZONE =       -1.5952D+07         SATURATED ZONE =           3422.80

 OVERALL BUDGET ERROR =         -94442.15           BUDGET ERROR =             24.78


  PERCENT DISCREPANCY =             -0.02    PERCENT DISCREPANCY =              0.05



1
 SUMMARY VOLUMETRIC BUDGET FOR GSFLOW 
 DATE: 08 20 1996              CUMULATIVE TIME STEP:    5803
 MODFLOW STRESS PERIOD      2     CURRENT TIME STEP:    5803     ITERATIONS:      13

 -----------------------------------------------------------------------------------

   CUMULATIVE VOLUMES               L**3   RATES FOR THIS TIME STEP           L**3/T
   ------------------                      ------------------------

                                     IN                                         IN
                                     --                                         --
        PRECIPITATION =        4.6531D+08          PRECIPITATION =                  
           STREAMFLOW =                               STREAMFLOW =                  
     GW BOUNDARY FLOW =                         GW BOUNDARY FLOW =                  


                                    OUT                                        OUT
                                    ---                                        ---
   EVAPOTRANSPIRATION =        2.9759D+08     EVAPOTRANSPIRATION =          18248.57
           STREAMFLOW =        1.7437D+08             STREAMFLOW =           6120.71
     GW BOUNDARY FLOW =        3753528.92       GW BOUNDARY FLOW =            649.88

   INFLOWS - OUTFLOWS =       -1.0403D+07     INFLOWS - OUTFLOWS =         -25019.16
             --------                                   --------

 TOTAL STORAGE CHANGE =       -1.0309D+07         STORAGE CHANGE =         -25051.36
       --------------                             --------------
         LAND SURFACE =          40251.07           LAND SURFACE =          -2042.85
            SOIL ZONE =         156173.08              SOIL ZONE =          -3615.41
     UNSATURATED ZONE =        5422246.97       UNSATURATED ZONE =         -22551.41
       SATURATED ZONE =       -1.5928D+07         SATURATED ZONE =           3158.31

 OVERALL BUDGET ERROR =         -94262.85           BUDGET ERROR =             32.20


  PERCENT DISCREPANCY =             -0.02    PERCENT DISCREPANCY =              0.13



1
 SUMMARY VOLUMETRIC BUDGET FOR GSFLOW 
 DATE: 08 27 1996              CUMULATIVE TIME STEP:    5810
 MODFLOW STRESS PERIOD      2     CURRENT TIME STEP:    5810     ITERATIONS:      13

 -----------------------------------------------------------------------------------

   CUMULATIVE VOLUMES               L**3   RATES FOR THIS TIME STEP           L**3/T
   ------------------                      ------------------------

                                     IN                                         IN
                                     --                                         --
        PRECIPITATION =        4.6531D+08          PRECIPITATION =                  
           STREAMFLOW =                               STREAMFLOW =                  
     GW BOUNDARY FLOW =                         GW BOUNDARY FLOW =                  


                                    OUT                                        OUT
                                    ---                                        ---
   EVAPOTRANSPIRATION =        2.9773D+08     EVAPOTRANSPIRATION =          14558.34
           STREAMFLOW =        1.7441D+08             STREAMFLOW =           5968.90
     GW BOUNDARY FLOW =        3758076.56       GW BOUNDARY FLOW =            649.50

   INFLOWS - OUTFLOWS =       -1.0589D+07     INFLOWS - OUTFLOWS =         -21176.74
             --------                                   --------

 TOTAL STORAGE CHANGE =       -1.0495D+07         STORAGE CHANGE =         -21204.96
       --------------                             --------------
         LAND SURFACE =          26150.57           LAND SURFACE =          -1370.47
            SOIL ZONE =         119604.86              SOIL ZONE =           -679.29
     UNSATURATED ZONE =        5269161.74       UNSATURATED ZONE =         -21239.03
       SATURATED ZONE =       -1.5909D+07         SATURATED ZONE =           2083.83

 OVERALL BUDGET ERROR =         -94058.99           BUDGET ERROR =             28.22


  PERCENT DISCREPANCY =             -0.02    PERCENT DISCREPANCY =              0.13



1
 SUMMARY VOLUMETRIC BUDGET FOR GSFLOW 
 DATE: 09 03 1996              CUMULATIVE TIME STEP:    5817
 MODFLOW STRESS PERIOD      2     CURRENT TIME STEP:    5817     ITERATIONS:      13

 -----------------------------------------------------------------------------------

   CUMULATIVE VOLUMES               L**3   RATES FOR THIS TIME STEP           L**3/T
   ------------------                      ------------------------

                                     IN                                         IN
                                     --                                         --
        PRECIPITATION =        4.6531D+08          PRECIPITATION =                  
           STREAMFLOW =                               STREAMFLOW =                  
     GW BOUNDARY FLOW =                         GW BOUNDARY FLOW =                  


                                    OUT                                        OUT
                                    ---                                        ---
   EVAPOTRANSPIRATION =        2.9784D+08     EVAPOTRANSPIRATION =          13879.16
           STREAMFLOW =        1.7445D+08             STREAMFLOW =           5867.70
     GW BOUNDARY FLOW =        3762621.42       GW BOUNDARY FLOW =            649.10

   INFLOWS - OUTFLOWS =       -1.0743D+07     INFLOWS - OUTFLOWS =         -20395.97
             --------                                   --------

 TOTAL STORAGE CHANGE =       -1.0649D+07         STORAGE CHANGE =         -20420.61
       --------------                             --------------
         LAND SURFACE =          17057.93           LAND SURFACE =          -1080.58
            SOIL ZONE =         107377.78              SOIL ZONE =           -406.67
     UNSATURATED ZONE =        5126079.20       UNSATURATED ZONE =         -19911.13
       SATURATED ZONE =       -1.5900D+07         SATURATED ZONE =            977.77

 OVERALL BUDGET ERROR =         -93900.87           BUDGET ERROR =             24.64


  PERCENT DISCREPANCY =             -0.02    PERCENT DISCREPANCY =              0.12



1
 SUMMARY VOLUMETRIC BUDGET FOR GSFLOW 
 DATE: 09 10 1996              CUMULATIVE TIME STEP:    5824
 MODFLOW STRESS PERIOD      2     CURRENT TIME STEP:    5824     ITERATIONS:      13

 -----------------------------------------------------------------------------------

   CUMULATIVE VOLUMES               L**3   RATES FOR THIS TIME STEP           L**3/T
   ------------------                      ------------------------

                                     IN                                         IN
                                     --                                         --
        PRECIPITATION =        4.6531D+08          PRECIPITATION =                  
           STREAMFLOW =                               STREAMFLOW =                  
     GW BOUNDARY FLOW =                         GW BOUNDARY FLOW =                  


                                    OUT                                        OUT
                                    ---                                        ---
   EVAPOTRANSPIRATION =        2.9792D+08     EVAPOTRANSPIRATION =          12842.41
           STREAMFLOW =        1.7449D+08             STREAMFLOW =           5776.41
     GW BOUNDARY FLOW =        3767163.52       GW BOUNDARY FLOW =            648.71

   INFLOWS - OUTFLOWS =       -1.0871D+07     INFLOWS - OUTFLOWS =         -19267.52
             --------                                   --------

 TOTAL STORAGE CHANGE =       -1.0777D+07         STORAGE CHANGE =         -19291.94
       --------------                             --------------
         LAND SURFACE =          10644.28           LAND SURFACE =           -976.08
            SOIL ZONE =         117059.89              SOIL ZONE =            409.98
     UNSATURATED ZONE =        4987101.99       UNSATURATED ZONE =         -19697.00
       SATURATED ZONE =       -1.5892D+07         SATURATED ZONE =            971.15

 OVERALL BUDGET ERROR =         -93770.91           BUDGET ERROR =             24.42


  PERCENT DISCREPANCY =             -0.02    PERCENT DISCREPANCY =              0.13



1
 SUMMARY VOLUMETRIC BUDGET FOR GSFLOW 
 DATE: 09 17 1996              CUMULATIVE TIME STEP:    5831
 MODFLOW STRESS PERIOD      2     CURRENT TIME STEP:    5831     ITERATIONS:      13

 -----------------------------------------------------------------------------------

   CUMULATIVE VOLUMES               L**3   RATES FOR THIS TIME STEP           L**3/T
   ------------------                      ------------------------

                                     IN                                         IN
                                     --                                         --
        PRECIPITATION =        4.6637D+08          PRECIPITATION =                  
           STREAMFLOW =                               STREAMFLOW =                  
     GW BOUNDARY FLOW =                         GW BOUNDARY FLOW =                  


                                    OUT                                        OUT
                                    ---                                        ---
   EVAPOTRANSPIRATION =        2.9813D+08     EVAPOTRANSPIRATION =          74571.48
           STREAMFLOW =        1.7456D+08             STREAMFLOW =           9761.92
     GW BOUNDARY FLOW =        3771704.95       GW BOUNDARY FLOW =            649.10

   INFLOWS - OUTFLOWS =       -1.0091D+07     INFLOWS - OUTFLOWS =         -84982.50
             --------                                   --------

 TOTAL STORAGE CHANGE =       -9997898.25         STORAGE CHANGE =         -85008.78
       --------------                             --------------
         LAND SURFACE =           6180.90           LAND SURFACE =         -34896.28
            SOIL ZONE =        1029173.64              SOIL ZONE =         -31573.29
     UNSATURATED ZONE =        4852108.87       UNSATURATED ZONE =         -19080.64
       SATURATED ZONE =       -1.5885D+07         SATURATED ZONE =            541.44

 OVERALL BUDGET ERROR =         -93562.81           BUDGET ERROR =             26.27


  PERCENT DISCREPANCY =             -0.02    PERCENT DISCREPANCY =              0.03



1
 SUMMARY VOLUMETRIC BUDGET FOR GSFLOW 
 DATE: 09 24 1996              CUMULATIVE TIME STEP:    5838
 MODFLOW STRESS PERIOD      2     CURRENT TIME STEP:    5838     ITERATIONS:      12

 -----------------------------------------------------------------------------------

   CUMULATIVE VOLUMES               L**3   RATES FOR THIS TIME STEP           L**3/T
   ------------------                      ------------------------

                                     IN                                         IN
                                     --                                         --
        PRECIPITATION =        4.6637D+08          PRECIPITATION =                  
           STREAMFLOW =                               STREAMFLOW =                  
     GW BOUNDARY FLOW =                         GW BOUNDARY FLOW =                  


                                    OUT                                        OUT
                                    ---                                        ---
   EVAPOTRANSPIRATION =        2.9864D+08     EVAPOTRANSPIRATION =          50326.12
           STREAMFLOW =        1.7460D+08             STREAMFLOW =           6096.29
     GW BOUNDARY FLOW =        3776244.64       GW BOUNDARY FLOW =            648.19

   INFLOWS - OUTFLOWS =       -1.0650D+07     INFLOWS - OUTFLOWS =         -57070.60
             --------                                   --------

 TOTAL STORAGE CHANGE =       -1.0557D+07         STORAGE CHANGE =         -57104.39
       --------------                             --------------
         LAND SURFACE =           2675.39           LAND SURFACE =           -481.80
            SOIL ZONE =         603009.56              SOIL ZONE =         -38251.82
     UNSATURATED ZONE =        4720820.39       UNSATURATED ZONE =         -18552.39
       SATURATED ZONE =       -1.5883D+07         SATURATED ZONE =            181.61

 OVERALL BUDGET ERROR =         -93325.77           BUDGET ERROR =             33.79


  PERCENT DISCREPANCY =             -0.02    PERCENT DISCREPANCY =              0.06



