1
 SUMMARY VOLUMETRIC BUDGET FOR GSFLOW 
 DATE: 10 07 1980              CUMULATIVE TIME STEP:       7
 MODFLOW STRESS PERIOD      2     CURRENT TIME STEP:       7     ITERATIONS:       6

 -----------------------------------------------------------------------------------

   CUMULATIVE VOLUMES               L**3   RATES FOR THIS TIME STEP           L**3/T
   ------------------                      ------------------------

                                     IN                                         IN
                                     --                                         --
        PRECIPITATION =                            PRECIPITATION =                  
           STREAMFLOW =                               STREAMFLOW =                  
     GW BOUNDARY FLOW =                         GW BOUNDARY FLOW =                  


                                    OUT                                        OUT
                                    ---                                        ---
   EVAPOTRANSPIRATION =          64707.50     EVAPOTRANSPIRATION =           9413.73
           STREAMFLOW =          42957.50             STREAMFLOW =           6065.76
     GW BOUNDARY FLOW =           4541.44       GW BOUNDARY FLOW =            648.70

   INFLOWS - OUTFLOWS =        -112206.44     INFLOWS - OUTFLOWS =         -16128.19
             --------                                   --------

 TOTAL STORAGE CHANGE =        -111810.83         STORAGE CHANGE =         -16067.60
       --------------                             --------------
         LAND SURFACE =                             LAND SURFACE =                  
            SOIL ZONE =          45808.48              SOIL ZONE =           6282.58
     UNSATURATED ZONE =        -144779.04       UNSATURATED ZONE =         -20361.32
       SATURATED ZONE =         -12840.27         SATURATED ZONE =          -1988.86

 OVERALL BUDGET ERROR =           -395.61           BUDGET ERROR =            -60.59


  PERCENT DISCREPANCY =             -0.35    PERCENT DISCREPANCY =             -0.38



1
 SUMMARY VOLUMETRIC BUDGET FOR GSFLOW 
 DATE: 10 14 1980              CUMULATIVE TIME STEP:      14
 MODFLOW STRESS PERIOD      2     CURRENT TIME STEP:      14     ITERATIONS:       6

 -----------------------------------------------------------------------------------

   CUMULATIVE VOLUMES               L**3   RATES FOR THIS TIME STEP           L**3/T
   ------------------                      ------------------------

                                     IN                                         IN
                                     --                                         --
        PRECIPITATION =         650780.39          PRECIPITATION =         164754.68
           STREAMFLOW =                               STREAMFLOW =                  
     GW BOUNDARY FLOW =                         GW BOUNDARY FLOW =                  


                                    OUT                                        OUT
                                    ---                                        ---
   EVAPOTRANSPIRATION =         161814.79     EVAPOTRANSPIRATION =          10666.29
           STREAMFLOW =          94485.34             STREAMFLOW =           7726.72
     GW BOUNDARY FLOW =           9082.96       GW BOUNDARY FLOW =            648.94

   INFLOWS - OUTFLOWS =         385397.31     INFLOWS - OUTFLOWS =         145712.74
             --------                                   --------

 TOTAL STORAGE CHANGE =         386236.18         STORAGE CHANGE =         145774.22
       --------------                             --------------
         LAND SURFACE =         183752.11           LAND SURFACE =         130549.80
            SOIL ZONE =         514549.64              SOIL ZONE =          37254.81
     UNSATURATED ZONE =        -284496.86       UNSATURATED ZONE =         -19624.98
       SATURATED ZONE =         -27568.70         SATURATED ZONE =          -2405.41

 OVERALL BUDGET ERROR =           -838.88           BUDGET ERROR =            -61.49


  PERCENT DISCREPANCY =             -0.13    PERCENT DISCREPANCY =             -0.04



1
 SUMMARY VOLUMETRIC BUDGET FOR GSFLOW 
 DATE: 10 21 1980              CUMULATIVE TIME STEP:      21
 MODFLOW STRESS PERIOD      2     CURRENT TIME STEP:      21     ITERATIONS:       6

 -----------------------------------------------------------------------------------

   CUMULATIVE VOLUMES               L**3   RATES FOR THIS TIME STEP           L**3/T
   ------------------                      ------------------------

                                     IN                                         IN
                                     --                                         --
        PRECIPITATION =         733156.23          PRECIPITATION =                  
           STREAMFLOW =                               STREAMFLOW =                  
     GW BOUNDARY FLOW =                         GW BOUNDARY FLOW =                  


                                    OUT                                        OUT
                                    ---                                        ---
   EVAPOTRANSPIRATION =         415369.90     EVAPOTRANSPIRATION =          37988.30
           STREAMFLOW =         145875.91             STREAMFLOW =           6877.92
     GW BOUNDARY FLOW =          13624.72       GW BOUNDARY FLOW =            648.74

   INFLOWS - OUTFLOWS =         158285.70     INFLOWS - OUTFLOWS =         -45514.95
             --------                                   --------

 TOTAL STORAGE CHANGE =         159575.33         STORAGE CHANGE =         -45444.45
       --------------                             --------------
         LAND SURFACE =                             LAND SURFACE =                  
            SOIL ZONE =         624834.79              SOIL ZONE =         -23583.75
     UNSATURATED ZONE =        -418693.28       UNSATURATED ZONE =         -18825.47
       SATURATED ZONE =         -46566.19         SATURATED ZONE =          -3035.23

 OVERALL BUDGET ERROR =          -1289.63           BUDGET ERROR =            -70.50


  PERCENT DISCREPANCY =             -0.18    PERCENT DISCREPANCY =             -0.16



1
 SUMMARY VOLUMETRIC BUDGET FOR GSFLOW 
 DATE: 10 28 1980              CUMULATIVE TIME STEP:      28
 MODFLOW STRESS PERIOD      2     CURRENT TIME STEP:      28     ITERATIONS:       6

 -----------------------------------------------------------------------------------

   CUMULATIVE VOLUMES               L**3   RATES FOR THIS TIME STEP           L**3/T
   ------------------                      ------------------------

                                     IN                                         IN
                                     --                                         --
        PRECIPITATION =        1070899.96          PRECIPITATION =                  
           STREAMFLOW =                               STREAMFLOW =                  
     GW BOUNDARY FLOW =                         GW BOUNDARY FLOW =                  


                                    OUT                                        OUT
                                    ---                                        ---
   EVAPOTRANSPIRATION =         596888.77     EVAPOTRANSPIRATION =          24794.04
           STREAMFLOW =         199269.52             STREAMFLOW =           7741.66
     GW BOUNDARY FLOW =          18165.84       GW BOUNDARY FLOW =            648.77

   INFLOWS - OUTFLOWS =         256575.83     INFLOWS - OUTFLOWS =         -33184.47
             --------                                   --------

 TOTAL STORAGE CHANGE =         258377.93         STORAGE CHANGE =         -33107.18
       --------------                             --------------
         LAND SURFACE =          20573.21           LAND SURFACE =         -29874.96
            SOIL ZONE =         854549.31              SOIL ZONE =          18301.36
     UNSATURATED ZONE =        -547437.02       UNSATURATED ZONE =         -18028.21
       SATURATED ZONE =         -69307.58         SATURATED ZONE =          -3505.37

 OVERALL BUDGET ERROR =          -1802.09           BUDGET ERROR =            -77.29


  PERCENT DISCREPANCY =             -0.17    PERCENT DISCREPANCY =             -0.23



1
 SUMMARY VOLUMETRIC BUDGET FOR GSFLOW 
 DATE: 11 04 1980              CUMULATIVE TIME STEP:      35
 MODFLOW STRESS PERIOD      2     CURRENT TIME STEP:      35     ITERATIONS:       9

 -----------------------------------------------------------------------------------

   CUMULATIVE VOLUMES               L**3   RATES FOR THIS TIME STEP           L**3/T
   ------------------                      ------------------------

                                     IN                                         IN
                                     --                                         --
        PRECIPITATION =        1070899.96          PRECIPITATION =                  
           STREAMFLOW =                               STREAMFLOW =                  
     GW BOUNDARY FLOW =                         GW BOUNDARY FLOW =                  


                                    OUT                                        OUT
                                    ---                                        ---
   EVAPOTRANSPIRATION =         893912.63     EVAPOTRANSPIRATION =          35846.15
           STREAMFLOW =         250228.50             STREAMFLOW =           6834.16
     GW BOUNDARY FLOW =          22706.60       GW BOUNDARY FLOW =            648.61

   INFLOWS - OUTFLOWS =         -95947.77     INFLOWS - OUTFLOWS =         -43328.91
             --------                                   --------

 TOTAL STORAGE CHANGE =         -93744.97         STORAGE CHANGE =         -43282.69
       --------------                             --------------
         LAND SURFACE =                             LAND SURFACE =                  
            SOIL ZONE =         673948.11              SOIL ZONE =         -21728.16
     UNSATURATED ZONE =        -670911.68       UNSATURATED ZONE =         -17355.88
       SATURATED ZONE =         -96781.40         SATURATED ZONE =          -4198.65

 OVERALL BUDGET ERROR =          -2202.81           BUDGET ERROR =            -46.22


  PERCENT DISCREPANCY =             -0.19    PERCENT DISCREPANCY =             -0.11



1
 SUMMARY VOLUMETRIC BUDGET FOR GSFLOW 
 DATE: 11 11 1980              CUMULATIVE TIME STEP:      42
 MODFLOW STRESS PERIOD      2     CURRENT TIME STEP:      42     ITERATIONS:       7

 -----------------------------------------------------------------------------------

   CUMULATIVE VOLUMES               L**3   RATES FOR THIS TIME STEP           L**3/T
   ------------------                      ------------------------

                                     IN                                         IN
                                     --                                         --
        PRECIPITATION =        1573759.34          PRECIPITATION =         255182.10
           STREAMFLOW =                               STREAMFLOW =                  
     GW BOUNDARY FLOW =                         GW BOUNDARY FLOW =                  


                                    OUT                                        OUT
                                    ---                                        ---
   EVAPOTRANSPIRATION =        1110537.70     EVAPOTRANSPIRATION =          14586.99
           STREAMFLOW =         305183.84             STREAMFLOW =          10475.71
     GW BOUNDARY FLOW =          27247.17       GW BOUNDARY FLOW =            648.82

   INFLOWS - OUTFLOWS =         130790.63     INFLOWS - OUTFLOWS =         229470.58
             --------                                   --------

 TOTAL STORAGE CHANGE =         133480.11         STORAGE CHANGE =         229525.54
       --------------                             --------------
         LAND SURFACE =          76836.74           LAND SURFACE =          76836.74
            SOIL ZONE =         973102.02              SOIL ZONE =         173456.30
     UNSATURATED ZONE =        -789565.07       UNSATURATED ZONE =         -16598.53
       SATURATED ZONE =        -126893.59         SATURATED ZONE =          -4168.96

 OVERALL BUDGET ERROR =          -2689.48           BUDGET ERROR =            -54.96


  PERCENT DISCREPANCY =             -0.17    PERCENT DISCREPANCY =             -0.02



1
 SUMMARY VOLUMETRIC BUDGET FOR GSFLOW 
 DATE: 11 18 1980              CUMULATIVE TIME STEP:      49
 MODFLOW STRESS PERIOD      2     CURRENT TIME STEP:      49     ITERATIONS:       6

 -----------------------------------------------------------------------------------

   CUMULATIVE VOLUMES               L**3   RATES FOR THIS TIME STEP           L**3/T
   ------------------                      ------------------------

                                     IN                                         IN
                                     --                                         --
        PRECIPITATION =        1573759.34          PRECIPITATION =                  
           STREAMFLOW =                               STREAMFLOW =                  
     GW BOUNDARY FLOW =                         GW BOUNDARY FLOW =                  


                                    OUT                                        OUT
                                    ---                                        ---
   EVAPOTRANSPIRATION =        1206442.97     EVAPOTRANSPIRATION =          22090.24
           STREAMFLOW =         366076.57             STREAMFLOW =           9095.60
     GW BOUNDARY FLOW =          31788.79       GW BOUNDARY FLOW =            648.82

   INFLOWS - OUTFLOWS =         -30549.00     INFLOWS - OUTFLOWS =         -31834.67
             --------                                   --------

 TOTAL STORAGE CHANGE =         -27340.90         STORAGE CHANGE =         -31745.44
       --------------                             --------------
         LAND SURFACE =           5398.38           LAND SURFACE =          -7586.22
            SOIL ZONE =        1030845.15              SOIL ZONE =          -3300.96
     UNSATURATED ZONE =        -903561.49       UNSATURATED ZONE =         -16026.96
       SATURATED ZONE =        -160022.94         SATURATED ZONE =          -4831.30

 OVERALL BUDGET ERROR =          -3208.10           BUDGET ERROR =            -89.23


  PERCENT DISCREPANCY =             -0.20    PERCENT DISCREPANCY =             -0.28



1
 SUMMARY VOLUMETRIC BUDGET FOR GSFLOW 
 DATE: 11 25 1980              CUMULATIVE TIME STEP:      56
 MODFLOW STRESS PERIOD      2     CURRENT TIME STEP:      56     ITERATIONS:       9

 -----------------------------------------------------------------------------------

   CUMULATIVE VOLUMES               L**3   RATES FOR THIS TIME STEP           L**3/T
   ------------------                      ------------------------

                                     IN                                         IN
                                     --                                         --
        PRECIPITATION =        1648813.76          PRECIPITATION =                  
           STREAMFLOW =                               STREAMFLOW =                  
     GW BOUNDARY FLOW =                         GW BOUNDARY FLOW =                  


                                    OUT                                        OUT
                                    ---                                        ---
   EVAPOTRANSPIRATION =        1290027.27     EVAPOTRANSPIRATION =           9312.58
           STREAMFLOW =         430837.68             STREAMFLOW =           9500.92
     GW BOUNDARY FLOW =          36330.75       GW BOUNDARY FLOW =            648.88

   INFLOWS - OUTFLOWS =        -108381.93     INFLOWS - OUTFLOWS =         -19462.38
             --------                                   --------

 TOTAL STORAGE CHANGE =        -104615.09         STORAGE CHANGE =         -19417.98
       --------------                             --------------
         LAND SURFACE =          53187.47           LAND SURFACE =          -9260.11
            SOIL ZONE =        1051771.44              SOIL ZONE =          10667.17
     UNSATURATED ZONE =       -1013260.20       UNSATURATED ZONE =         -15393.00
       SATURATED ZONE =        -196313.80         SATURATED ZONE =          -5432.04

 OVERALL BUDGET ERROR =          -3766.84           BUDGET ERROR =            -44.40


  PERCENT DISCREPANCY =             -0.21    PERCENT DISCREPANCY =             -0.23



1
 SUMMARY VOLUMETRIC BUDGET FOR GSFLOW 
 DATE: 12 02 1980              CUMULATIVE TIME STEP:      63
 MODFLOW STRESS PERIOD      2     CURRENT TIME STEP:      63     ITERATIONS:       8

 -----------------------------------------------------------------------------------

   CUMULATIVE VOLUMES               L**3   RATES FOR THIS TIME STEP           L**3/T
   ------------------                      ------------------------

                                     IN                                         IN
                                     --                                         --
        PRECIPITATION =        2076620.74          PRECIPITATION =                  
           STREAMFLOW =                               STREAMFLOW =                  
     GW BOUNDARY FLOW =                         GW BOUNDARY FLOW =                  


                                    OUT                                        OUT
                                    ---                                        ---
   EVAPOTRANSPIRATION =        1496570.83     EVAPOTRANSPIRATION =          37392.37
           STREAMFLOW =         511412.47             STREAMFLOW =          14674.09
     GW BOUNDARY FLOW =          40874.13       GW BOUNDARY FLOW =            649.36

   INFLOWS - OUTFLOWS =          27763.31     INFLOWS - OUTFLOWS =         -52715.81
             --------                                   --------

 TOTAL STORAGE CHANGE =          31896.98         STORAGE CHANGE =         -52670.43
       --------------                             --------------
         LAND SURFACE =         139443.43           LAND SURFACE =         -82002.01
            SOIL ZONE =        1240892.37              SOIL ZONE =          46994.39
     UNSATURATED ZONE =       -1115329.79       UNSATURATED ZONE =         -13037.98
       SATURATED ZONE =        -233109.02         SATURATED ZONE =          -4624.83

 OVERALL BUDGET ERROR =          -4133.67           BUDGET ERROR =            -45.38


  PERCENT DISCREPANCY =             -0.20    PERCENT DISCREPANCY =             -0.09



1
 SUMMARY VOLUMETRIC BUDGET FOR GSFLOW 
 DATE: 12 09 1980              CUMULATIVE TIME STEP:      70
 MODFLOW STRESS PERIOD      2     CURRENT TIME STEP:      70     ITERATIONS:       7

 -----------------------------------------------------------------------------------

   CUMULATIVE VOLUMES               L**3   RATES FOR THIS TIME STEP           L**3/T
   ------------------                      ------------------------

                                     IN                                         IN
                                     --                                         --
        PRECIPITATION =        4284363.13          PRECIPITATION =                  
           STREAMFLOW =                               STREAMFLOW =                  
     GW BOUNDARY FLOW =                         GW BOUNDARY FLOW =                  


                                    OUT                                        OUT
                                    ---                                        ---
   EVAPOTRANSPIRATION =        1523126.32     EVAPOTRANSPIRATION =           4180.71
           STREAMFLOW =         607115.68             STREAMFLOW =          13990.19
     GW BOUNDARY FLOW =          45420.41       GW BOUNDARY FLOW =            649.56

   INFLOWS - OUTFLOWS =        2108700.71     INFLOWS - OUTFLOWS =         -18820.46
             --------                                   --------

 TOTAL STORAGE CHANGE =        2113279.92         STORAGE CHANGE =         -18755.29
       --------------                             --------------
         LAND SURFACE =        2319000.21           LAND SURFACE =          -4180.71
            SOIL ZONE =        1280253.03              SOIL ZONE =           5562.38
     UNSATURATED ZONE =       -1213951.07       UNSATURATED ZONE =         -14243.53
       SATURATED ZONE =        -272022.26         SATURATED ZONE =          -5893.44

 OVERALL BUDGET ERROR =          -4579.21           BUDGET ERROR =            -65.17


  PERCENT DISCREPANCY =             -0.11    PERCENT DISCREPANCY =             -0.35



1
 SUMMARY VOLUMETRIC BUDGET FOR GSFLOW 
 DATE: 12 16 1980              CUMULATIVE TIME STEP:      77
 MODFLOW STRESS PERIOD      2     CURRENT TIME STEP:      77     ITERATIONS:       7

 -----------------------------------------------------------------------------------

   CUMULATIVE VOLUMES               L**3   RATES FOR THIS TIME STEP           L**3/T
   ------------------                      ------------------------

                                     IN                                         IN
                                     --                                         --
        PRECIPITATION =        4284363.13          PRECIPITATION =                  
           STREAMFLOW =                               STREAMFLOW =                  
     GW BOUNDARY FLOW =                         GW BOUNDARY FLOW =                  


                                    OUT                                        OUT
                                    ---                                        ---
   EVAPOTRANSPIRATION =        1674890.53     EVAPOTRANSPIRATION =          35694.90
           STREAMFLOW =         725199.86             STREAMFLOW =          24983.85
     GW BOUNDARY FLOW =          49968.60       GW BOUNDARY FLOW =            650.21

   INFLOWS - OUTFLOWS =        1834304.13     INFLOWS - OUTFLOWS =         -61328.96
             --------                                   --------

 TOTAL STORAGE CHANGE =        1839285.06         STORAGE CHANGE =         -61270.43
       --------------                             --------------
         LAND SURFACE =        1981773.89           LAND SURFACE =        -138704.97
            SOIL ZONE =        1473250.93              SOIL ZONE =          90821.33
     UNSATURATED ZONE =       -1303595.89       UNSATURATED ZONE =          -8988.92
       SATURATED ZONE =        -312143.88         SATURATED ZONE =          -4397.86

 OVERALL BUDGET ERROR =          -4980.92           BUDGET ERROR =            -58.53


  PERCENT DISCREPANCY =             -0.12    PERCENT DISCREPANCY =             -0.10



1
 SUMMARY VOLUMETRIC BUDGET FOR GSFLOW 
 DATE: 12 23 1980              CUMULATIVE TIME STEP:      84
 MODFLOW STRESS PERIOD      2     CURRENT TIME STEP:      84     ITERATIONS:       9

 -----------------------------------------------------------------------------------

   CUMULATIVE VOLUMES               L**3   RATES FOR THIS TIME STEP           L**3/T
   ------------------                      ------------------------

                                     IN                                         IN
                                     --                                         --
        PRECIPITATION =        4516755.31          PRECIPITATION =                  
           STREAMFLOW =                               STREAMFLOW =                  
     GW BOUNDARY FLOW =                         GW BOUNDARY FLOW =                  


                                    OUT                                        OUT
                                    ---                                        ---
   EVAPOTRANSPIRATION =        1894952.49     EVAPOTRANSPIRATION =          37557.68
           STREAMFLOW =         956139.94             STREAMFLOW =          30954.18
     GW BOUNDARY FLOW =          54529.14       GW BOUNDARY FLOW =            651.97

   INFLOWS - OUTFLOWS =        1611133.75     INFLOWS - OUTFLOWS =         -69163.83
             --------                                   --------

 TOTAL STORAGE CHANGE =        1616359.11         STORAGE CHANGE =         -69127.10
       --------------                             --------------
         LAND SURFACE =        1331470.56           LAND SURFACE =         -52543.77
            SOIL ZONE =        1969538.53              SOIL ZONE =          -6261.34
     UNSATURATED ZONE =       -1344908.47       UNSATURATED ZONE =          -5763.81
       SATURATED ZONE =        -339741.50         SATURATED ZONE =          -4558.17

 OVERALL BUDGET ERROR =          -5225.37           BUDGET ERROR =            -36.72


  PERCENT DISCREPANCY =             -0.12    PERCENT DISCREPANCY =             -0.05



1
 SUMMARY VOLUMETRIC BUDGET FOR GSFLOW 
 DATE: 12 30 1980              CUMULATIVE TIME STEP:      91
 MODFLOW STRESS PERIOD      2     CURRENT TIME STEP:      91     ITERATIONS:      10

 -----------------------------------------------------------------------------------

   CUMULATIVE VOLUMES               L**3   RATES FOR THIS TIME STEP           L**3/T
   ------------------                      ------------------------

                                     IN                                         IN
                                     --                                         --
        PRECIPITATION =        4516755.31          PRECIPITATION =                  
           STREAMFLOW =                               STREAMFLOW =                  
     GW BOUNDARY FLOW =                         GW BOUNDARY FLOW =                  


                                    OUT                                        OUT
                                    ---                                        ---
   EVAPOTRANSPIRATION =        2275058.26     EVAPOTRANSPIRATION =          48689.89
           STREAMFLOW =        1201464.47             STREAMFLOW =          27018.93
     GW BOUNDARY FLOW =          59095.92       GW BOUNDARY FLOW =            652.35

   INFLOWS - OUTFLOWS =         981136.67     INFLOWS - OUTFLOWS =         -76361.17
             --------                                   --------

 TOTAL STORAGE CHANGE =         986485.25         STORAGE CHANGE =         -76349.30
       --------------                             --------------
         LAND SURFACE =         529446.97           LAND SURFACE =         -41358.17
            SOIL ZONE =        2179265.93              SOIL ZONE =         -25747.41
     UNSATURATED ZONE =       -1356969.52       UNSATURATED ZONE =          -4963.43
       SATURATED ZONE =        -365258.13         SATURATED ZONE =          -4280.29

 OVERALL BUDGET ERROR =          -5348.58           BUDGET ERROR =            -11.87


  PERCENT DISCREPANCY =             -0.12    PERCENT DISCREPANCY =             -0.02



1
 SUMMARY VOLUMETRIC BUDGET FOR GSFLOW 
 DATE: 01 06 1981              CUMULATIVE TIME STEP:      98
 MODFLOW STRESS PERIOD      2     CURRENT TIME STEP:      98     ITERATIONS:       8

 -----------------------------------------------------------------------------------

   CUMULATIVE VOLUMES               L**3   RATES FOR THIS TIME STEP           L**3/T
   ------------------                      ------------------------

                                     IN                                         IN
                                     --                                         --
        PRECIPITATION =        5004445.82          PRECIPITATION =                  
           STREAMFLOW =                               STREAMFLOW =                  
     GW BOUNDARY FLOW =                         GW BOUNDARY FLOW =                  


                                    OUT                                        OUT
                                    ---                                        ---
   EVAPOTRANSPIRATION =        2506551.63     EVAPOTRANSPIRATION =          21291.83
           STREAMFLOW =        1347579.17             STREAMFLOW =          19853.36
     GW BOUNDARY FLOW =          63656.61       GW BOUNDARY FLOW =            651.07

   INFLOWS - OUTFLOWS =        1086658.40     INFLOWS - OUTFLOWS =         -41796.26
             --------                                   --------

 TOTAL STORAGE CHANGE =        1092167.24         STORAGE CHANGE =         -41765.57
       --------------                             --------------
         LAND SURFACE =         783105.33           LAND SURFACE =         -28174.19
            SOIL ZONE =        2147865.15              SOIL ZONE =           4628.42
     UNSATURATED ZONE =       -1433707.20       UNSATURATED ZONE =         -12221.95
       SATURATED ZONE =        -405096.04         SATURATED ZONE =          -5997.86

 OVERALL BUDGET ERROR =          -5508.84           BUDGET ERROR =            -30.69


  PERCENT DISCREPANCY =             -0.11    PERCENT DISCREPANCY =             -0.07



1
 SUMMARY VOLUMETRIC BUDGET FOR GSFLOW 
 DATE: 01 13 1981              CUMULATIVE TIME STEP:     105
 MODFLOW STRESS PERIOD      2     CURRENT TIME STEP:     105     ITERATIONS:       7

 -----------------------------------------------------------------------------------

   CUMULATIVE VOLUMES               L**3   RATES FOR THIS TIME STEP           L**3/T
   ------------------                      ------------------------

                                     IN                                         IN
                                     --                                         --
        PRECIPITATION =        5004445.82          PRECIPITATION =                  
           STREAMFLOW =                               STREAMFLOW =                  
     GW BOUNDARY FLOW =                         GW BOUNDARY FLOW =                  


                                    OUT                                        OUT
                                    ---                                        ---
   EVAPOTRANSPIRATION =        2718382.88     EVAPOTRANSPIRATION =          43755.89
           STREAMFLOW =        1492179.66             STREAMFLOW =          19956.70
     GW BOUNDARY FLOW =          68213.11       GW BOUNDARY FLOW =            650.80

   INFLOWS - OUTFLOWS =         725670.16     INFLOWS - OUTFLOWS =         -64363.39
             --------                                   --------

 TOTAL STORAGE CHANGE =         731504.11         STORAGE CHANGE =         -64313.01
       --------------                             --------------
         LAND SURFACE =         556998.15           LAND SURFACE =         -38369.48
            SOIL ZONE =        2127690.84              SOIL ZONE =          -9866.42
     UNSATURATED ZONE =       -1503429.79       UNSATURATED ZONE =          -9413.05
       SATURATED ZONE =        -449755.08         SATURATED ZONE =          -6664.06

 OVERALL BUDGET ERROR =          -5833.96           BUDGET ERROR =            -50.38


  PERCENT DISCREPANCY =             -0.12    PERCENT DISCREPANCY =             -0.08



1
 SUMMARY VOLUMETRIC BUDGET FOR GSFLOW 
 DATE: 01 20 1981              CUMULATIVE TIME STEP:     112
 MODFLOW STRESS PERIOD      2     CURRENT TIME STEP:     112     ITERATIONS:       8

 -----------------------------------------------------------------------------------

   CUMULATIVE VOLUMES               L**3   RATES FOR THIS TIME STEP           L**3/T
   ------------------                      ------------------------

                                     IN                                         IN
                                     --                                         --
        PRECIPITATION =        5170468.48          PRECIPITATION =          41503.16
           STREAMFLOW =                               STREAMFLOW =                  
     GW BOUNDARY FLOW =                         GW BOUNDARY FLOW =                  


                                    OUT                                        OUT
                                    ---                                        ---
   EVAPOTRANSPIRATION =        3019331.93     EVAPOTRANSPIRATION =          54573.49
           STREAMFLOW =        1629213.65             STREAMFLOW =          19311.91
     GW BOUNDARY FLOW =          72767.48       GW BOUNDARY FLOW =            650.55

   INFLOWS - OUTFLOWS =         449155.43     INFLOWS - OUTFLOWS =         -33032.78
             --------                                   --------

 TOTAL STORAGE CHANGE =         455323.14         STORAGE CHANGE =         -32997.01
       --------------                             --------------
         LAND SURFACE =         392560.19           LAND SURFACE =           1262.98
            SOIL ZONE =        2103476.14              SOIL ZONE =         -23705.36
     UNSATURATED ZONE =       -1544784.22       UNSATURATED ZONE =          -3678.56
       SATURATED ZONE =        -495928.98         SATURATED ZONE =          -6876.07

 OVERALL BUDGET ERROR =          -6167.71           BUDGET ERROR =            -35.77


  PERCENT DISCREPANCY =             -0.12    PERCENT DISCREPANCY =             -0.05



1
 SUMMARY VOLUMETRIC BUDGET FOR GSFLOW 
 DATE: 01 27 1981              CUMULATIVE TIME STEP:     119
 MODFLOW STRESS PERIOD      2     CURRENT TIME STEP:     119     ITERATIONS:       8

 -----------------------------------------------------------------------------------

   CUMULATIVE VOLUMES               L**3   RATES FOR THIS TIME STEP           L**3/T
   ------------------                      ------------------------

                                     IN                                         IN
                                     --                                         --
        PRECIPITATION =        8646542.90          PRECIPITATION =        2936504.96
           STREAMFLOW =                               STREAMFLOW =                  
     GW BOUNDARY FLOW =                         GW BOUNDARY FLOW =                  


                                    OUT                                        OUT
                                    ---                                        ---
   EVAPOTRANSPIRATION =        3251122.49     EVAPOTRANSPIRATION =          12593.32
           STREAMFLOW =        1762840.24             STREAMFLOW =          17712.23
     GW BOUNDARY FLOW =          77320.62       GW BOUNDARY FLOW =            650.30

   INFLOWS - OUTFLOWS =        3555259.55     INFLOWS - OUTFLOWS =        2905549.12
             --------                                   --------

 TOTAL STORAGE CHANGE =        3561647.39         STORAGE CHANGE =        2905579.89
       --------------                             --------------
         LAND SURFACE =        3531533.77           LAND SURFACE =        2923911.72
            SOIL ZONE =        2137134.77              SOIL ZONE =          -3851.99
     UNSATURATED ZONE =       -1561832.59       UNSATURATED ZONE =          -7123.89
       SATURATED ZONE =        -545188.56         SATURATED ZONE =          -7355.94

 OVERALL BUDGET ERROR =          -6387.84           BUDGET ERROR =            -30.78


  PERCENT DISCREPANCY =             -0.07    PERCENT DISCREPANCY =             -0.00



1
 SUMMARY VOLUMETRIC BUDGET FOR GSFLOW 
 DATE: 02 03 1981              CUMULATIVE TIME STEP:     126
 MODFLOW STRESS PERIOD      2     CURRENT TIME STEP:     126     ITERATIONS:       8

 -----------------------------------------------------------------------------------

   CUMULATIVE VOLUMES               L**3   RATES FOR THIS TIME STEP           L**3/T
   ------------------                      ------------------------

                                     IN                                         IN
                                     --                                         --
        PRECIPITATION =        1.1739D+07          PRECIPITATION =                  
           STREAMFLOW =                               STREAMFLOW =                  
     GW BOUNDARY FLOW =                         GW BOUNDARY FLOW =                  


                                    OUT                                        OUT
                                    ---                                        ---
   EVAPOTRANSPIRATION =        3288470.97     EVAPOTRANSPIRATION =           8130.85
           STREAMFLOW =        1885997.89             STREAMFLOW =          17677.38
     GW BOUNDARY FLOW =          81872.09       GW BOUNDARY FLOW =            650.20

   INFLOWS - OUTFLOWS =        6482356.82     INFLOWS - OUTFLOWS =         -26458.43
             --------                                   --------

 TOTAL STORAGE CHANGE =        6489029.60         STORAGE CHANGE =         -26428.05
       --------------                             --------------
         LAND SURFACE =        6586340.18           LAND SURFACE =          -8130.85
            SOIL ZONE =        2135805.13              SOIL ZONE =            859.41
     UNSATURATED ZONE =       -1633486.05       UNSATURATED ZONE =         -11179.10
       SATURATED ZONE =        -599629.66         SATURATED ZONE =          -7977.49

 OVERALL BUDGET ERROR =          -6672.78           BUDGET ERROR =            -30.39


  PERCENT DISCREPANCY =             -0.06    PERCENT DISCREPANCY =             -0.11



1
 SUMMARY VOLUMETRIC BUDGET FOR GSFLOW 
 DATE: 02 10 1981              CUMULATIVE TIME STEP:     133
 MODFLOW STRESS PERIOD      2     CURRENT TIME STEP:     133     ITERATIONS:       7

 -----------------------------------------------------------------------------------

   CUMULATIVE VOLUMES               L**3   RATES FOR THIS TIME STEP           L**3/T
   ------------------                      ------------------------

                                     IN                                         IN
                                     --                                         --
        PRECIPITATION =        1.1838D+07          PRECIPITATION =                  
           STREAMFLOW =                               STREAMFLOW =                  
     GW BOUNDARY FLOW =                         GW BOUNDARY FLOW =                  


                                    OUT                                        OUT
                                    ---                                        ---
   EVAPOTRANSPIRATION =        3422273.32     EVAPOTRANSPIRATION =          34657.17
           STREAMFLOW =        2010615.48             STREAMFLOW =          17873.93
     GW BOUNDARY FLOW =          86423.54       GW BOUNDARY FLOW =            650.20

   INFLOWS - OUTFLOWS =        6318950.89     INFLOWS - OUTFLOWS =         -53181.30
             --------                                   --------

 TOTAL STORAGE CHANGE =        6325893.02         STORAGE CHANGE =         -53117.37
       --------------                             --------------
         LAND SURFACE =        6552103.29           LAND SURFACE =         -34657.17
            SOIL ZONE =        2141170.68              SOIL ZONE =            612.61
     UNSATURATED ZONE =       -1709742.50       UNSATURATED ZONE =         -10587.62
       SATURATED ZONE =        -657638.45         SATURATED ZONE =          -8485.19

 OVERALL BUDGET ERROR =          -6942.13           BUDGET ERROR =            -63.93


  PERCENT DISCREPANCY =             -0.06    PERCENT DISCREPANCY =             -0.12



1
 SUMMARY VOLUMETRIC BUDGET FOR GSFLOW 
 DATE: 02 17 1981              CUMULATIVE TIME STEP:     140
 MODFLOW STRESS PERIOD      2     CURRENT TIME STEP:     140     ITERATIONS:      14

 -----------------------------------------------------------------------------------

   CUMULATIVE VOLUMES               L**3   RATES FOR THIS TIME STEP           L**3/T
   ------------------                      ------------------------

                                     IN                                         IN
                                     --                                         --
        PRECIPITATION =        1.2765D+07          PRECIPITATION =          68928.68
           STREAMFLOW =                               STREAMFLOW =                  
     GW BOUNDARY FLOW =                         GW BOUNDARY FLOW =                  


                                    OUT                                        OUT
                                    ---                                        ---
   EVAPOTRANSPIRATION =        3770431.01     EVAPOTRANSPIRATION =          71030.99
           STREAMFLOW =        2525297.21             STREAMFLOW =         122192.98
     GW BOUNDARY FLOW =          90995.94       GW BOUNDARY FLOW =            656.61

   INFLOWS - OUTFLOWS =        6378256.51     INFLOWS - OUTFLOWS =        -124951.90
             --------                                   --------

 TOTAL STORAGE CHANGE =        6385431.99         STORAGE CHANGE =        -124946.93
       --------------                             --------------
         LAND SURFACE =        5604894.48           LAND SURFACE =        -287595.36
            SOIL ZONE =        2945419.65              SOIL ZONE =          84857.90
     UNSATURATED ZONE =       -1487356.32       UNSATURATED ZONE =          75836.85
       SATURATED ZONE =        -677525.81         SATURATED ZONE =           1953.68

 OVERALL BUDGET ERROR =          -7175.49           BUDGET ERROR =             -4.98


  PERCENT DISCREPANCY =             -0.06    PERCENT DISCREPANCY =             -0.00



1
 SUMMARY VOLUMETRIC BUDGET FOR GSFLOW 
 DATE: 02 24 1981              CUMULATIVE TIME STEP:     147
 MODFLOW STRESS PERIOD      2     CURRENT TIME STEP:     147     ITERATIONS:      14

 -----------------------------------------------------------------------------------

   CUMULATIVE VOLUMES               L**3   RATES FOR THIS TIME STEP           L**3/T
   ------------------                      ------------------------

                                     IN                                         IN
                                     --                                         --
        PRECIPITATION =        1.3179D+07          PRECIPITATION =         344647.71
           STREAMFLOW =                               STREAMFLOW =                  
     GW BOUNDARY FLOW =                         GW BOUNDARY FLOW =                  


                                    OUT                                        OUT
                                    ---                                        ---
   EVAPOTRANSPIRATION =        4146547.80     EVAPOTRANSPIRATION =          19832.91
           STREAMFLOW =        3095623.23             STREAMFLOW =          50798.25
     GW BOUNDARY FLOW =          95590.06       GW BOUNDARY FLOW =            655.28

   INFLOWS - OUTFLOWS =        5840797.37     INFLOWS - OUTFLOWS =         273361.27
             --------                                   --------

 TOTAL STORAGE CHANGE =        5847869.71         STORAGE CHANGE =         273345.09
       --------------                             --------------
         LAND SURFACE =        4925109.93           LAND SURFACE =         300251.60
            SOIL ZONE =        2696209.49              SOIL ZONE =         -57764.62
     UNSATURATED ZONE =       -1117684.36       UNSATURATED ZONE =          28712.33
       SATURATED ZONE =        -655765.35         SATURATED ZONE =           2145.77

 OVERALL BUDGET ERROR =          -7072.34           BUDGET ERROR =             16.18


  PERCENT DISCREPANCY =             -0.05    PERCENT DISCREPANCY =              0.00



1
 SUMMARY VOLUMETRIC BUDGET FOR GSFLOW 
 DATE: 03 03 1981              CUMULATIVE TIME STEP:     154
 MODFLOW STRESS PERIOD      2     CURRENT TIME STEP:     154     ITERATIONS:      12

 -----------------------------------------------------------------------------------

   CUMULATIVE VOLUMES               L**3   RATES FOR THIS TIME STEP           L**3/T
   ------------------                      ------------------------

                                     IN                                         IN
                                     --                                         --
        PRECIPITATION =        1.3447D+07          PRECIPITATION =                  
           STREAMFLOW =                               STREAMFLOW =                  
     GW BOUNDARY FLOW =                         GW BOUNDARY FLOW =                  


                                    OUT                                        OUT
                                    ---                                        ---
   EVAPOTRANSPIRATION =        4309219.75     EVAPOTRANSPIRATION =          44568.32
           STREAMFLOW =        3317214.96             STREAMFLOW =          27084.43
     GW BOUNDARY FLOW =         100162.96       GW BOUNDARY FLOW =            652.26

   INFLOWS - OUTFLOWS =        5720021.12     INFLOWS - OUTFLOWS =         -72305.00
             --------                                   --------

 TOTAL STORAGE CHANGE =        5726949.77         STORAGE CHANGE =         -72320.95
       --------------                             --------------
         LAND SURFACE =        5011972.62           LAND SURFACE =         -61722.17
            SOIL ZONE =        2485299.08              SOIL ZONE =            535.10
     UNSATURATED ZONE =       -1108260.76       UNSATURATED ZONE =          -8526.33
       SATURATED ZONE =        -662061.17         SATURATED ZONE =          -2607.55

 OVERALL BUDGET ERROR =          -6928.65           BUDGET ERROR =             15.95


  PERCENT DISCREPANCY =             -0.05    PERCENT DISCREPANCY =              0.02



1
 SUMMARY VOLUMETRIC BUDGET FOR GSFLOW 
 DATE: 03 10 1981              CUMULATIVE TIME STEP:     161
 MODFLOW STRESS PERIOD      2     CURRENT TIME STEP:     161     ITERATIONS:      11

 -----------------------------------------------------------------------------------

   CUMULATIVE VOLUMES               L**3   RATES FOR THIS TIME STEP           L**3/T
   ------------------                      ------------------------

                                     IN                                         IN
                                     --                                         --
        PRECIPITATION =        1.3493D+07          PRECIPITATION =                  
           STREAMFLOW =                               STREAMFLOW =                  
     GW BOUNDARY FLOW =                         GW BOUNDARY FLOW =                  


                                    OUT                                        OUT
                                    ---                                        ---
   EVAPOTRANSPIRATION =        4650394.71     EVAPOTRANSPIRATION =          71562.45
           STREAMFLOW =        3545607.34             STREAMFLOW =          41958.33
     GW BOUNDARY FLOW =         104728.57       GW BOUNDARY FLOW =            652.83

   INFLOWS - OUTFLOWS =        5192223.90     INFLOWS - OUTFLOWS =        -114173.61
             --------                                   --------

 TOTAL STORAGE CHANGE =        5199045.40         STORAGE CHANGE =        -114185.92
       --------------                             --------------
         LAND SURFACE =        4369723.84           LAND SURFACE =        -162552.80
            SOIL ZONE =        2590395.22              SOIL ZONE =          28401.05
     UNSATURATED ZONE =       -1082424.17       UNSATURATED ZONE =          21036.35
       SATURATED ZONE =        -678649.49         SATURATED ZONE =          -1070.52

 OVERALL BUDGET ERROR =          -6821.50           BUDGET ERROR =             12.31


  PERCENT DISCREPANCY =             -0.05    PERCENT DISCREPANCY =              0.01



1
 SUMMARY VOLUMETRIC BUDGET FOR GSFLOW 
 DATE: 03 17 1981              CUMULATIVE TIME STEP:     168
 MODFLOW STRESS PERIOD      2     CURRENT TIME STEP:     168     ITERATIONS:       9

 -----------------------------------------------------------------------------------

   CUMULATIVE VOLUMES               L**3   RATES FOR THIS TIME STEP           L**3/T
   ------------------                      ------------------------

                                     IN                                         IN
                                     --                                         --
        PRECIPITATION =        1.3745D+07          PRECIPITATION =                  
           STREAMFLOW =                               STREAMFLOW =                  
     GW BOUNDARY FLOW =                         GW BOUNDARY FLOW =                  


                                    OUT                                        OUT
                                    ---                                        ---
   EVAPOTRANSPIRATION =        5009850.96     EVAPOTRANSPIRATION =          39557.19
           STREAMFLOW =        3768453.91             STREAMFLOW =          23668.76
     GW BOUNDARY FLOW =         109295.64       GW BOUNDARY FLOW =            651.87

   INFLOWS - OUTFLOWS =        4856902.31     INFLOWS - OUTFLOWS =         -63877.82
             --------                                   --------

 TOTAL STORAGE CHANGE =        4863605.18         STORAGE CHANGE =         -63878.81
       --------------                             --------------
         LAND SURFACE =        4198119.47           LAND SURFACE =         -39206.25
            SOIL ZONE =        2429375.86              SOIL ZONE =          -4401.79
     UNSATURATED ZONE =       -1065940.86       UNSATURATED ZONE =         -15447.89
       SATURATED ZONE =        -697949.31         SATURATED ZONE =          -4822.88

 OVERALL BUDGET ERROR =          -6702.87           BUDGET ERROR =              0.98


  PERCENT DISCREPANCY =             -0.05    PERCENT DISCREPANCY =              0.00



1
 SUMMARY VOLUMETRIC BUDGET FOR GSFLOW 
 DATE: 03 24 1981              CUMULATIVE TIME STEP:     175
 MODFLOW STRESS PERIOD      2     CURRENT TIME STEP:     175     ITERATIONS:       8

 -----------------------------------------------------------------------------------

   CUMULATIVE VOLUMES               L**3   RATES FOR THIS TIME STEP           L**3/T
   ------------------                      ------------------------

                                     IN                                         IN
                                     --                                         --
        PRECIPITATION =        1.4367D+07          PRECIPITATION =                  
           STREAMFLOW =                               STREAMFLOW =                  
     GW BOUNDARY FLOW =                         GW BOUNDARY FLOW =                  


                                    OUT                                        OUT
                                    ---                                        ---
   EVAPOTRANSPIRATION =        5362923.40     EVAPOTRANSPIRATION =          85696.82
           STREAMFLOW =        3933808.30             STREAMFLOW =          25199.90
     GW BOUNDARY FLOW =         113855.48       GW BOUNDARY FLOW =            651.29

   INFLOWS - OUTFLOWS =        4956169.06     INFLOWS - OUTFLOWS =        -111548.02
             --------                                   --------

 TOTAL STORAGE CHANGE =        4962887.65         STORAGE CHANGE =        -111537.19
       --------------                             --------------
         LAND SURFACE =        4528959.93           LAND SURFACE =         -63588.50
            SOIL ZONE =        2316159.25              SOIL ZONE =         -36088.77
     UNSATURATED ZONE =       -1145855.47       UNSATURATED ZONE =          -6159.08
       SATURATED ZONE =        -736376.06         SATURATED ZONE =          -5700.84

 OVERALL BUDGET ERROR =          -6718.60           BUDGET ERROR =            -10.82


  PERCENT DISCREPANCY =             -0.05    PERCENT DISCREPANCY =             -0.01



1
 SUMMARY VOLUMETRIC BUDGET FOR GSFLOW 
 DATE: 03 31 1981              CUMULATIVE TIME STEP:     182
 MODFLOW STRESS PERIOD      2     CURRENT TIME STEP:     182     ITERATIONS:      12

 -----------------------------------------------------------------------------------

   CUMULATIVE VOLUMES               L**3   RATES FOR THIS TIME STEP           L**3/T
   ------------------                      ------------------------

                                     IN                                         IN
                                     --                                         --
        PRECIPITATION =        1.5777D+07          PRECIPITATION =                  
           STREAMFLOW =                               STREAMFLOW =                  
     GW BOUNDARY FLOW =                         GW BOUNDARY FLOW =                  


                                    OUT                                        OUT
                                    ---                                        ---
   EVAPOTRANSPIRATION =        5788432.76     EVAPOTRANSPIRATION =          55421.24
           STREAMFLOW =        4383913.69             STREAMFLOW =          33421.66
     GW BOUNDARY FLOW =         118434.08       GW BOUNDARY FLOW =            653.15

   INFLOWS - OUTFLOWS =        5485985.67     INFLOWS - OUTFLOWS =         -89496.04
             --------                                   --------

 TOTAL STORAGE CHANGE =        5492613.42         STORAGE CHANGE =         -89515.21
       --------------                             --------------
         LAND SURFACE =        4697103.43           LAND SURFACE =         -55743.36
            SOIL ZONE =        2493749.33              SOIL ZONE =         -31812.47
     UNSATURATED ZONE =        -957726.73       UNSATURATED ZONE =            356.82
       SATURATED ZONE =        -740512.62         SATURATED ZONE =          -2316.20

 OVERALL BUDGET ERROR =          -6627.75           BUDGET ERROR =             19.16


  PERCENT DISCREPANCY =             -0.04    PERCENT DISCREPANCY =              0.02



1
 SUMMARY VOLUMETRIC BUDGET FOR GSFLOW 
 DATE: 04 07 1981              CUMULATIVE TIME STEP:     189
 MODFLOW STRESS PERIOD      2     CURRENT TIME STEP:     189     ITERATIONS:      10

 -----------------------------------------------------------------------------------

   CUMULATIVE VOLUMES               L**3   RATES FOR THIS TIME STEP           L**3/T
   ------------------                      ------------------------

                                     IN                                         IN
                                     --                                         --
        PRECIPITATION =        1.6121D+07          PRECIPITATION =                  
           STREAMFLOW =                               STREAMFLOW =                  
     GW BOUNDARY FLOW =                         GW BOUNDARY FLOW =                  


                                    OUT                                        OUT
                                    ---                                        ---
   EVAPOTRANSPIRATION =        6434037.34     EVAPOTRANSPIRATION =         106275.95
           STREAMFLOW =        4680345.12             STREAMFLOW =          42210.30
     GW BOUNDARY FLOW =         123007.21       GW BOUNDARY FLOW =            653.58

   INFLOWS - OUTFLOWS =        4884093.48     INFLOWS - OUTFLOWS =        -149139.82
             --------                                   --------

 TOTAL STORAGE CHANGE =        4890583.06         STORAGE CHANGE =        -149162.79
       --------------                             --------------
         LAND SURFACE =        4078016.32           LAND SURFACE =        -145758.59
            SOIL ZONE =        2452812.20              SOIL ZONE =         -13384.96
     UNSATURATED ZONE =        -891219.39       UNSATURATED ZONE =          10673.75
       SATURATED ZONE =        -749026.08         SATURATED ZONE =           -692.99

 OVERALL BUDGET ERROR =          -6489.58           BUDGET ERROR =             22.97


  PERCENT DISCREPANCY =             -0.04    PERCENT DISCREPANCY =              0.02



1
 SUMMARY VOLUMETRIC BUDGET FOR GSFLOW 
 DATE: 04 14 1981              CUMULATIVE TIME STEP:     196
 MODFLOW STRESS PERIOD      2     CURRENT TIME STEP:     196     ITERATIONS:      12

 -----------------------------------------------------------------------------------

   CUMULATIVE VOLUMES               L**3   RATES FOR THIS TIME STEP           L**3/T
   ------------------                      ------------------------

                                     IN                                         IN
                                     --                                         --
        PRECIPITATION =        1.6121D+07          PRECIPITATION =                  
           STREAMFLOW =                               STREAMFLOW =                  
     GW BOUNDARY FLOW =                         GW BOUNDARY FLOW =                  


                                    OUT                                        OUT
                                    ---                                        ---
   EVAPOTRANSPIRATION =        7361068.39     EVAPOTRANSPIRATION =         190847.08
           STREAMFLOW =        5005221.32             STREAMFLOW =          55353.61
     GW BOUNDARY FLOW =         127581.74       GW BOUNDARY FLOW =            653.52

   INFLOWS - OUTFLOWS =        3627611.70     INFLOWS - OUTFLOWS =        -246854.21
             --------                                   --------

 TOTAL STORAGE CHANGE =        3633925.60         STORAGE CHANGE =        -246873.48
       --------------                             --------------
         LAND SURFACE =        2766600.66           LAND SURFACE =        -261667.29
            SOIL ZONE =        2410812.69              SOIL ZONE =          -6999.86
     UNSATURATED ZONE =        -793057.06       UNSATURATED ZONE =          20652.41
       SATURATED ZONE =        -750430.69         SATURATED ZONE =           1141.27

 OVERALL BUDGET ERROR =          -6313.90           BUDGET ERROR =             19.27


  PERCENT DISCREPANCY =             -0.04    PERCENT DISCREPANCY =              0.01



1
 SUMMARY VOLUMETRIC BUDGET FOR GSFLOW 
 DATE: 04 21 1981              CUMULATIVE TIME STEP:     203
 MODFLOW STRESS PERIOD      2     CURRENT TIME STEP:     203     ITERATIONS:      13

 -----------------------------------------------------------------------------------

   CUMULATIVE VOLUMES               L**3   RATES FOR THIS TIME STEP           L**3/T
   ------------------                      ------------------------

                                     IN                                         IN
                                     --                                         --
        PRECIPITATION =        1.6310D+07          PRECIPITATION =                  
           STREAMFLOW =                               STREAMFLOW =                  
     GW BOUNDARY FLOW =                         GW BOUNDARY FLOW =                  


                                    OUT                                        OUT
                                    ---                                        ---
   EVAPOTRANSPIRATION =        8453516.54     EVAPOTRANSPIRATION =         161783.40
           STREAMFLOW =        5346895.16             STREAMFLOW =          46211.59
     GW BOUNDARY FLOW =         132152.49       GW BOUNDARY FLOW =            652.57

   INFLOWS - OUTFLOWS =        2377693.22     INFLOWS - OUTFLOWS =        -208647.56
             --------                                   --------

 TOTAL STORAGE CHANGE =        2383859.99         STORAGE CHANGE =        -208680.44
       --------------                             --------------
         LAND SURFACE =        1526141.71           LAND SURFACE =        -128414.83
            SOIL ZONE =        2260420.15              SOIL ZONE =        -101023.29
     UNSATURATED ZONE =        -662628.10       UNSATURATED ZONE =          18795.45
       SATURATED ZONE =        -740073.77         SATURATED ZONE =           1962.23

 OVERALL BUDGET ERROR =          -6166.77           BUDGET ERROR =             32.88


  PERCENT DISCREPANCY =             -0.04    PERCENT DISCREPANCY =              0.02



1
 SUMMARY VOLUMETRIC BUDGET FOR GSFLOW 
 DATE: 04 28 1981              CUMULATIVE TIME STEP:     210
 MODFLOW STRESS PERIOD      2     CURRENT TIME STEP:     210     ITERATIONS:      13

 -----------------------------------------------------------------------------------

   CUMULATIVE VOLUMES               L**3   RATES FOR THIS TIME STEP           L**3/T
   ------------------                      ------------------------

                                     IN                                         IN
                                     --                                         --
        PRECIPITATION =        1.6515D+07          PRECIPITATION =                  
           STREAMFLOW =                               STREAMFLOW =                  
     GW BOUNDARY FLOW =                         GW BOUNDARY FLOW =                  


                                    OUT                                        OUT
                                    ---                                        ---
   EVAPOTRANSPIRATION =        9733761.93     EVAPOTRANSPIRATION =         204138.45
           STREAMFLOW =        5555731.99             STREAMFLOW =          23035.96
     GW BOUNDARY FLOW =         136711.41       GW BOUNDARY FLOW =            650.33

   INFLOWS - OUTFLOWS =        1089241.63     INFLOWS - OUTFLOWS =        -227824.74
             --------                                   --------

 TOTAL STORAGE CHANGE =        1095242.10         STORAGE CHANGE =        -227847.55
       --------------                             --------------
         LAND SURFACE =         765041.89           LAND SURFACE =         -86581.37
            SOIL ZONE =        1720677.47              SOIL ZONE =        -136486.93
     UNSATURATED ZONE =        -647835.10       UNSATURATED ZONE =          -3563.23
       SATURATED ZONE =        -742642.16         SATURATED ZONE =          -1216.02

 OVERALL BUDGET ERROR =          -6000.48           BUDGET ERROR =             22.81


  PERCENT DISCREPANCY =             -0.04    PERCENT DISCREPANCY =              0.01



1
 SUMMARY VOLUMETRIC BUDGET FOR GSFLOW 
 DATE: 05 05 1981              CUMULATIVE TIME STEP:     217
 MODFLOW STRESS PERIOD      2     CURRENT TIME STEP:     217     ITERATIONS:      14

 -----------------------------------------------------------------------------------

   CUMULATIVE VOLUMES               L**3   RATES FOR THIS TIME STEP           L**3/T
   ------------------                      ------------------------

                                     IN                                         IN
                                     --                                         --
        PRECIPITATION =        1.6515D+07          PRECIPITATION =                  
           STREAMFLOW =                               STREAMFLOW =                  
     GW BOUNDARY FLOW =                         GW BOUNDARY FLOW =                  


                                    OUT                                        OUT
                                    ---                                        ---
   EVAPOTRANSPIRATION =        1.0641D+07     EVAPOTRANSPIRATION =          57984.14
           STREAMFLOW =        5653961.71             STREAMFLOW =          10166.22
     GW BOUNDARY FLOW =         141256.67       GW BOUNDARY FLOW =            648.65

   INFLOWS - OUTFLOWS =          79579.75     INFLOWS - OUTFLOWS =         -68799.01
             --------                                   --------

 TOTAL STORAGE CHANGE =          85481.42         STORAGE CHANGE =         -68808.14
       --------------                             --------------
         LAND SURFACE =         399244.39           LAND SURFACE =         -19315.26
            SOIL ZONE =        1185570.53              SOIL ZONE =         -30638.00
     UNSATURATED ZONE =        -735731.79       UNSATURATED ZONE =         -15565.92
       SATURATED ZONE =        -763601.71         SATURATED ZONE =          -3288.96

 OVERALL BUDGET ERROR =          -5901.67           BUDGET ERROR =              9.12


  PERCENT DISCREPANCY =             -0.04    PERCENT DISCREPANCY =              0.01



1
 SUMMARY VOLUMETRIC BUDGET FOR GSFLOW 
 DATE: 05 12 1981              CUMULATIVE TIME STEP:     224
 MODFLOW STRESS PERIOD      2     CURRENT TIME STEP:     224     ITERATIONS:      11

 -----------------------------------------------------------------------------------

   CUMULATIVE VOLUMES               L**3   RATES FOR THIS TIME STEP           L**3/T
   ------------------                      ------------------------

                                     IN                                         IN
                                     --                                         --
        PRECIPITATION =        1.6515D+07          PRECIPITATION =                  
           STREAMFLOW =                               STREAMFLOW =                  
     GW BOUNDARY FLOW =                         GW BOUNDARY FLOW =                  


                                    OUT                                        OUT
                                    ---                                        ---
   EVAPOTRANSPIRATION =        1.1172D+07     EVAPOTRANSPIRATION =          94890.81
           STREAMFLOW =        5721846.91             STREAMFLOW =          10210.92
     GW BOUNDARY FLOW =         145794.60       GW BOUNDARY FLOW =            648.14

   INFLOWS - OUTFLOWS =        -523916.07     INFLOWS - OUTFLOWS =        -105749.87
             --------                                   --------

 TOTAL STORAGE CHANGE =        -518107.14         STORAGE CHANGE =        -105766.88
       --------------                             --------------
         LAND SURFACE =         236028.85           LAND SURFACE =         -28466.58
            SOIL ZONE =         878047.41              SOIL ZONE =         -59037.33
     UNSATURATED ZONE =        -836070.24       UNSATURATED ZONE =         -12695.82
       SATURATED ZONE =        -796113.16         SATURATED ZONE =          -5567.14

 OVERALL BUDGET ERROR =          -5808.94           BUDGET ERROR =             17.00


  PERCENT DISCREPANCY =             -0.03    PERCENT DISCREPANCY =              0.02



1
 SUMMARY VOLUMETRIC BUDGET FOR GSFLOW 
 DATE: 05 19 1981              CUMULATIVE TIME STEP:     231
 MODFLOW STRESS PERIOD      2     CURRENT TIME STEP:     231     ITERATIONS:      14

 -----------------------------------------------------------------------------------

   CUMULATIVE VOLUMES               L**3   RATES FOR THIS TIME STEP           L**3/T
   ------------------                      ------------------------

                                     IN                                         IN
                                     --                                         --
        PRECIPITATION =        1.7837D+07          PRECIPITATION =         169047.83
           STREAMFLOW =                               STREAMFLOW =                  
     GW BOUNDARY FLOW =                         GW BOUNDARY FLOW =                  


                                    OUT                                        OUT
                                    ---                                        ---
   EVAPOTRANSPIRATION =        1.1593D+07     EVAPOTRANSPIRATION =          34209.10
           STREAMFLOW =        5841098.56             STREAMFLOW =          21908.87
     GW BOUNDARY FLOW =         150333.33       GW BOUNDARY FLOW =            649.24

   INFLOWS - OUTFLOWS =         252517.30     INFLOWS - OUTFLOWS =         112280.62
             --------                                   --------

 TOTAL STORAGE CHANGE =         258269.95         STORAGE CHANGE =         112274.15
       --------------                             --------------
         LAND SURFACE =         199378.22           LAND SURFACE =          20104.58
            SOIL ZONE =        1796076.39              SOIL ZONE =          99911.51
     UNSATURATED ZONE =        -897190.88       UNSATURATED ZONE =           -756.95
       SATURATED ZONE =        -839993.78         SATURATED ZONE =          -6984.99

 OVERALL BUDGET ERROR =          -5752.64           BUDGET ERROR =              6.47


  PERCENT DISCREPANCY =             -0.03    PERCENT DISCREPANCY =              0.00



1
 SUMMARY VOLUMETRIC BUDGET FOR GSFLOW 
 DATE: 05 26 1981              CUMULATIVE TIME STEP:     238
 MODFLOW STRESS PERIOD      2     CURRENT TIME STEP:     238     ITERATIONS:      13

 -----------------------------------------------------------------------------------

   CUMULATIVE VOLUMES               L**3   RATES FOR THIS TIME STEP           L**3/T
   ------------------                      ------------------------

                                     IN                                         IN
                                     --                                         --
        PRECIPITATION =        1.8252D+07          PRECIPITATION =         284301.98
           STREAMFLOW =                               STREAMFLOW =                  
     GW BOUNDARY FLOW =                         GW BOUNDARY FLOW =                  


                                    OUT                                        OUT
                                    ---                                        ---
   EVAPOTRANSPIRATION =        1.2496D+07     EVAPOTRANSPIRATION =         145733.70
           STREAMFLOW =        5940188.06             STREAMFLOW =          17699.90
     GW BOUNDARY FLOW =         154872.88       GW BOUNDARY FLOW =            648.32

   INFLOWS - OUTFLOWS =        -339366.12     INFLOWS - OUTFLOWS =         120220.07
             --------                                   --------

 TOTAL STORAGE CHANGE =        -333651.21         STORAGE CHANGE =         120215.53
       --------------                             --------------
         LAND SURFACE =         121447.14           LAND SURFACE =          -8077.84
            SOIL ZONE =        1393311.40              SOIL ZONE =         145797.95
     UNSATURATED ZONE =        -954876.91       UNSATURATED ZONE =         -10077.16
       SATURATED ZONE =        -893532.84         SATURATED ZONE =          -7427.41

 OVERALL BUDGET ERROR =          -5714.91           BUDGET ERROR =              4.53


  PERCENT DISCREPANCY =             -0.03    PERCENT DISCREPANCY =              0.00



1
 SUMMARY VOLUMETRIC BUDGET FOR GSFLOW 
 DATE: 06 02 1981              CUMULATIVE TIME STEP:     245
 MODFLOW STRESS PERIOD      2     CURRENT TIME STEP:     245     ITERATIONS:      12

 -----------------------------------------------------------------------------------

   CUMULATIVE VOLUMES               L**3   RATES FOR THIS TIME STEP           L**3/T
   ------------------                      ------------------------

                                     IN                                         IN
                                     --                                         --
        PRECIPITATION =        1.8318D+07          PRECIPITATION =          50867.39
           STREAMFLOW =                               STREAMFLOW =                  
     GW BOUNDARY FLOW =                         GW BOUNDARY FLOW =                  


                                    OUT                                        OUT
                                    ---                                        ---
   EVAPOTRANSPIRATION =        1.3296D+07     EVAPOTRANSPIRATION =          74453.80
           STREAMFLOW =        6005690.18             STREAMFLOW =           7525.86
     GW BOUNDARY FLOW =         159407.16       GW BOUNDARY FLOW =            647.36

   INFLOWS - OUTFLOWS =       -1142523.00     INFLOWS - OUTFLOWS =         -31759.64
             --------                                   --------

 TOTAL STORAGE CHANGE =       -1136842.97         STORAGE CHANGE =         -31767.18
       --------------                             --------------
         LAND SURFACE =          76065.81           LAND SURFACE =          28539.47
            SOIL ZONE =         776804.84              SOIL ZONE =         -38993.86
     UNSATURATED ZONE =       -1035427.56       UNSATURATED ZONE =         -12263.82
       SATURATED ZONE =        -954286.05         SATURATED ZONE =          -9048.96

 OVERALL BUDGET ERROR =          -5680.03           BUDGET ERROR =              7.54


  PERCENT DISCREPANCY =             -0.03    PERCENT DISCREPANCY =              0.01



1
 SUMMARY VOLUMETRIC BUDGET FOR GSFLOW 
 DATE: 06 09 1981              CUMULATIVE TIME STEP:     252
 MODFLOW STRESS PERIOD      2     CURRENT TIME STEP:     252     ITERATIONS:      15

 -----------------------------------------------------------------------------------

   CUMULATIVE VOLUMES               L**3   RATES FOR THIS TIME STEP           L**3/T
   ------------------                      ------------------------

                                     IN                                         IN
                                     --                                         --
        PRECIPITATION =        1.8318D+07          PRECIPITATION =                  
           STREAMFLOW =                               STREAMFLOW =                  
     GW BOUNDARY FLOW =                         GW BOUNDARY FLOW =                  


                                    OUT                                        OUT
                                    ---                                        ---
   EVAPOTRANSPIRATION =        1.3768D+07     EVAPOTRANSPIRATION =          49584.67
           STREAMFLOW =        6052207.54             STREAMFLOW =           6270.66
     GW BOUNDARY FLOW =         163936.70       GW BOUNDARY FLOW =            646.92

   INFLOWS - OUTFLOWS =       -1665568.48     INFLOWS - OUTFLOWS =         -56502.25
             --------                                   --------

 TOTAL STORAGE CHANGE =       -1659868.43         STORAGE CHANGE =         -56500.56
       --------------                             --------------
         LAND SURFACE =          13609.96           LAND SURFACE =          -3000.14
            SOIL ZONE =         469136.42              SOIL ZONE =         -31546.18
     UNSATURATED ZONE =       -1121031.65       UNSATURATED ZONE =         -12064.28
       SATURATED ZONE =       -1021583.17         SATURATED ZONE =          -9889.96

 OVERALL BUDGET ERROR =          -5700.05           BUDGET ERROR =             -1.69


  PERCENT DISCREPANCY =             -0.03    PERCENT DISCREPANCY =             -0.00



1
 SUMMARY VOLUMETRIC BUDGET FOR GSFLOW 
 DATE: 06 16 1981              CUMULATIVE TIME STEP:     259
 MODFLOW STRESS PERIOD      2     CURRENT TIME STEP:     259     ITERATIONS:      13

 -----------------------------------------------------------------------------------

   CUMULATIVE VOLUMES               L**3   RATES FOR THIS TIME STEP           L**3/T
   ------------------                      ------------------------

                                     IN                                         IN
                                     --                                         --
        PRECIPITATION =        1.8318D+07          PRECIPITATION =                  
           STREAMFLOW =                               STREAMFLOW =                  
     GW BOUNDARY FLOW =                         GW BOUNDARY FLOW =                  


                                    OUT                                        OUT
                                    ---                                        ---
   EVAPOTRANSPIRATION =        1.3955D+07     EVAPOTRANSPIRATION =          42661.93
           STREAMFLOW =        6094860.52             STREAMFLOW =           6028.36
     GW BOUNDARY FLOW =         168464.23       GW BOUNDARY FLOW =            646.71

   INFLOWS - OUTFLOWS =       -1899884.62     INFLOWS - OUTFLOWS =         -49337.01
             --------                                   --------

 TOTAL STORAGE CHANGE =       -1894203.16         STORAGE CHANGE =         -49346.48
       --------------                             --------------
         LAND SURFACE =           6267.42           LAND SURFACE =          -1304.38
            SOIL ZONE =         394577.08              SOIL ZONE =         -26388.98
     UNSATURATED ZONE =       -1202601.38       UNSATURATED ZONE =         -11544.13
       SATURATED ZONE =       -1092446.29         SATURATED ZONE =         -10108.98

 OVERALL BUDGET ERROR =          -5681.46           BUDGET ERROR =              9.47


  PERCENT DISCREPANCY =             -0.03    PERCENT DISCREPANCY =              0.02



1
 SUMMARY VOLUMETRIC BUDGET FOR GSFLOW 
 DATE: 06 23 1981              CUMULATIVE TIME STEP:     266
 MODFLOW STRESS PERIOD      2     CURRENT TIME STEP:     266     ITERATIONS:      10

 -----------------------------------------------------------------------------------

   CUMULATIVE VOLUMES               L**3   RATES FOR THIS TIME STEP           L**3/T
   ------------------                      ------------------------

                                     IN                                         IN
                                     --                                         --
        PRECIPITATION =        1.8318D+07          PRECIPITATION =                  
           STREAMFLOW =                               STREAMFLOW =                  
     GW BOUNDARY FLOW =                         GW BOUNDARY FLOW =                  


                                    OUT                                        OUT
                                    ---                                        ---
   EVAPOTRANSPIRATION =        1.4229D+07     EVAPOTRANSPIRATION =          32407.11
           STREAMFLOW =        6136363.41             STREAMFLOW =           5873.39
     GW BOUNDARY FLOW =         172990.51       GW BOUNDARY FLOW =            646.54

   INFLOWS - OUTFLOWS =       -2220452.23     INFLOWS - OUTFLOWS =         -38927.05
             --------                                   --------

 TOTAL STORAGE CHANGE =       -2214768.92         STORAGE CHANGE =         -38919.29
       --------------                             --------------
         LAND SURFACE =                             LAND SURFACE =                  
            SOIL ZONE =         230661.95              SOIL ZONE =         -17559.44
     UNSATURATED ZONE =       -1281065.73       UNSATURATED ZONE =         -10896.09
       SATURATED ZONE =       -1164365.15         SATURATED ZONE =         -10463.77

 OVERALL BUDGET ERROR =          -5683.31           BUDGET ERROR =             -7.76


  PERCENT DISCREPANCY =             -0.03    PERCENT DISCREPANCY =             -0.02



1
 SUMMARY VOLUMETRIC BUDGET FOR GSFLOW 
 DATE: 06 30 1981              CUMULATIVE TIME STEP:     273
 MODFLOW STRESS PERIOD      2     CURRENT TIME STEP:     273     ITERATIONS:      13

 -----------------------------------------------------------------------------------

   CUMULATIVE VOLUMES               L**3   RATES FOR THIS TIME STEP           L**3/T
   ------------------                      ------------------------

                                     IN                                         IN
[...]
                                    ---                                        ---
   EVAPOTRANSPIRATION =        2.9716D+08     EVAPOTRANSPIRATION =          41313.35
           STREAMFLOW =        1.7386D+08             STREAMFLOW =           6652.72
     GW BOUNDARY FLOW =        3735277.17       GW BOUNDARY FLOW =            650.79

   INFLOWS - OUTFLOWS =       -9694663.04     INFLOWS - OUTFLOWS =         -48616.86
             --------                                   --------

 TOTAL STORAGE CHANGE =       -9595717.86         STORAGE CHANGE =         -48643.11
       --------------                             --------------
         LAND SURFACE =         152692.44           LAND SURFACE =          -6818.24
            SOIL ZONE =         230756.91              SOIL ZONE =         -21413.16
     UNSATURATED ZONE =        6105666.07       UNSATURATED ZONE =         -26514.55
       SATURATED ZONE =       -1.6085D+07         SATURATED ZONE =           6102.83

 OVERALL BUDGET ERROR =         -98945.18           BUDGET ERROR =             26.25


  PERCENT DISCREPANCY =             -0.02    PERCENT DISCREPANCY =              0.05



1
 SUMMARY VOLUMETRIC BUDGET FOR GSFLOW 
 DATE: 07 30 1996              CUMULATIVE TIME STEP:    5782
 MODFLOW STRESS PERIOD      2     CURRENT TIME STEP:    5782     ITERATIONS:      14

 -----------------------------------------------------------------------------------

   CUMULATIVE VOLUMES               L**3   RATES FOR THIS TIME STEP           L**3/T
   ------------------                      ------------------------

                                     IN                                         IN
                                     --                                         --
        PRECIPITATION =        4.6511D+08          PRECIPITATION =                  
           STREAMFLOW =                               STREAMFLOW =                  
     GW BOUNDARY FLOW =                         GW BOUNDARY FLOW =                  


                                    OUT                                        OUT
                                    ---                                        ---
   EVAPOTRANSPIRATION =        2.9742D+08     EVAPOTRANSPIRATION =          30594.71
           STREAMFLOW =        1.7391D+08             STREAMFLOW =           6505.25
     GW BOUNDARY FLOW =        3739831.02       GW BOUNDARY FLOW =            650.37

   INFLOWS - OUTFLOWS =       -9959101.61     INFLOWS - OUTFLOWS =         -37750.33
             --------                                   --------

 TOTAL STORAGE CHANGE =       -9860296.58         STORAGE CHANGE =         -37768.23
       --------------                             --------------
         LAND SURFACE =         112099.97           LAND SURFACE =          -4929.06
            SOIL ZONE =         148567.40              SOIL ZONE =         -12706.59
     UNSATURATED ZONE =        5927833.36       UNSATURATED ZONE =         -24757.84
       SATURATED ZONE =       -1.6049D+07         SATURATED ZONE =           4625.27

 OVERALL BUDGET ERROR =         -98805.03           BUDGET ERROR =             17.90


  PERCENT DISCREPANCY =             -0.02    PERCENT DISCREPANCY =              0.05



1
 SUMMARY VOLUMETRIC BUDGET FOR GSFLOW 
 DATE: 08 06 1996              CUMULATIVE TIME STEP:    5789
 MODFLOW STRESS PERIOD      2     CURRENT TIME STEP:    5789     ITERATIONS:      13

 -----------------------------------------------------------------------------------

   CUMULATIVE VOLUMES               L**3   RATES FOR THIS TIME STEP           L**3/T
   ------------------                      ------------------------

                                     IN                                         IN
                                     --                                         --
        PRECIPITATION =        4.6511D+08          PRECIPITATION =                  
           STREAMFLOW =                               STREAMFLOW =                  
     GW BOUNDARY FLOW =                         GW BOUNDARY FLOW =                  


                                    OUT                                        OUT
                                    ---                                        ---
   EVAPOTRANSPIRATION =        2.9757D+08     EVAPOTRANSPIRATION =          18704.33
           STREAMFLOW =        1.7395D+08             STREAMFLOW =           6305.68
     GW BOUNDARY FLOW =        3744383.49       GW BOUNDARY FLOW =            650.31

   INFLOWS - OUTFLOWS =       -1.0158D+07     INFLOWS - OUTFLOWS =         -25660.33
             --------                                   --------

 TOTAL STORAGE CHANGE =       -1.0060D+07         STORAGE CHANGE =         -25686.51
       --------------                             --------------
         LAND SURFACE =          85235.59           LAND SURFACE =          -3353.13
            SOIL ZONE =         115783.36              SOIL ZONE =          -2472.03
     UNSATURATED ZONE =        5758816.82       UNSATURATED ZONE =         -23679.81
       SATURATED ZONE =       -1.6020D+07         SATURATED ZONE =           3818.46

 OVERALL BUDGET ERROR =         -98652.71           BUDGET ERROR =             26.18


  PERCENT DISCREPANCY =             -0.02    PERCENT DISCREPANCY =              0.10



1
 SUMMARY VOLUMETRIC BUDGET FOR GSFLOW 
 DATE: 08 13 1996              CUMULATIVE TIME STEP:    5796
 MODFLOW STRESS PERIOD      2     CURRENT TIME STEP:    5796     ITERATIONS:      17

 -----------------------------------------------------------------------------------

   CUMULATIVE VOLUMES               L**3   RATES FOR THIS TIME STEP           L**3/T
   ------------------                      ------------------------

                                     IN                                         IN
                                     --                                         --
        PRECIPITATION =        4.6531D+08          PRECIPITATION =          54456.73
           STREAMFLOW =                               STREAMFLOW =                  
     GW BOUNDARY FLOW =                         GW BOUNDARY FLOW =                  


                                    OUT                                        OUT
                                    ---                                        ---
   EVAPOTRANSPIRATION =        2.9775D+08     EVAPOTRANSPIRATION =          36296.65
           STREAMFLOW =        1.7400D+08             STREAMFLOW =           7497.09
     GW BOUNDARY FLOW =        3748935.28       GW BOUNDARY FLOW =            650.27

   INFLOWS - OUTFLOWS =       -1.0188D+07     INFLOWS - OUTFLOWS =          10012.70
             --------                                   --------

 TOTAL STORAGE CHANGE =       -1.0089D+07         STORAGE CHANGE =           9997.28
       --------------                             --------------
         LAND SURFACE =          92673.80           LAND SURFACE =          -3493.45
            SOIL ZONE =         216567.11              SOIL ZONE =          32952.73
     UNSATURATED ZONE =        5596834.30       UNSATURATED ZONE =         -22986.32
       SATURATED ZONE =       -1.5995D+07         SATURATED ZONE =           3524.32

 OVERALL BUDGET ERROR =         -98490.99           BUDGET ERROR =             15.42


  PERCENT DISCREPANCY =             -0.02    PERCENT DISCREPANCY =              0.03



1
 SUMMARY VOLUMETRIC BUDGET FOR GSFLOW 
 DATE: 08 20 1996              CUMULATIVE TIME STEP:    5803
 MODFLOW STRESS PERIOD      2     CURRENT TIME STEP:    5803     ITERATIONS:      13

 -----------------------------------------------------------------------------------

   CUMULATIVE VOLUMES               L**3   RATES FOR THIS TIME STEP           L**3/T
   ------------------                      ------------------------

                                     IN                                         IN
                                     --                                         --
        PRECIPITATION =        4.6531D+08          PRECIPITATION =                  
           STREAMFLOW =                               STREAMFLOW =                  
     GW BOUNDARY FLOW =                         GW BOUNDARY FLOW =                  


                                    OUT                                        OUT
                                    ---                                        ---
   EVAPOTRANSPIRATION =        2.9795D+08     EVAPOTRANSPIRATION =          18194.87
           STREAMFLOW =        1.7404D+08             STREAMFLOW =           6114.79
     GW BOUNDARY FLOW =        3753485.60       GW BOUNDARY FLOW =            649.87

   INFLOWS - OUTFLOWS =       -1.0438D+07     INFLOWS - OUTFLOWS =         -24959.54
             --------                                   --------

 TOTAL STORAGE CHANGE =       -1.0339D+07         STORAGE CHANGE =         -24989.59
       --------------                             --------------
         LAND SURFACE =          40251.08           LAND SURFACE =          -2042.85
            SOIL ZONE =         155019.86              SOIL ZONE =          -3581.03
     UNSATURATED ZONE =        5436580.68       UNSATURATED ZONE =         -22551.92
       SATURATED ZONE =       -1.5971D+07         SATURATED ZONE =           3186.21

 OVERALL BUDGET ERROR =         -98338.79           BUDGET ERROR =             30.05


  PERCENT DISCREPANCY =             -0.02    PERCENT DISCREPANCY =              0.12



1
 SUMMARY VOLUMETRIC BUDGET FOR GSFLOW 
 DATE: 08 27 1996              CUMULATIVE TIME STEP:    5810
 MODFLOW STRESS PERIOD      2     CURRENT TIME STEP:    5810     ITERATIONS:      13

 -----------------------------------------------------------------------------------

   CUMULATIVE VOLUMES               L**3   RATES FOR THIS TIME STEP           L**3/T
   ------------------                      ------------------------

                                     IN                                         IN
                                     --                                         --
        PRECIPITATION =        4.6531D+08          PRECIPITATION =                  
           STREAMFLOW =                               STREAMFLOW =                  
     GW BOUNDARY FLOW =                         GW BOUNDARY FLOW =                  


                                    OUT                                        OUT
                                    ---                                        ---
   EVAPOTRANSPIRATION =        2.9809D+08     EVAPOTRANSPIRATION =          14759.41
           STREAMFLOW =        1.7409D+08             STREAMFLOW =           5963.70
     GW BOUNDARY FLOW =        3758033.21       GW BOUNDARY FLOW =            649.50

   INFLOWS - OUTFLOWS =       -1.0623D+07     INFLOWS - OUTFLOWS =         -21372.61
             --------                                   --------

 TOTAL STORAGE CHANGE =       -1.0524D+07         STORAGE CHANGE =         -21395.71
       --------------                             --------------
         LAND SURFACE =          26150.57           LAND SURFACE =          -1370.47
            SOIL ZONE =         118641.26              SOIL ZONE =           -899.41
     UNSATURATED ZONE =        5283266.09       UNSATURATED ZONE =         -21290.75
       SATURATED ZONE =       -1.5952D+07         SATURATED ZONE =           2164.92

 OVERALL BUDGET ERROR =         -98177.55           BUDGET ERROR =             23.11


  PERCENT DISCREPANCY =             -0.02    PERCENT DISCREPANCY =              0.11



1
 SUMMARY VOLUMETRIC BUDGET FOR GSFLOW 
 DATE: 09 03 1996              CUMULATIVE TIME STEP:    5817
 MODFLOW STRESS PERIOD      2     CURRENT TIME STEP:    5817     ITERATIONS:      18

 -----------------------------------------------------------------------------------

   CUMULATIVE VOLUMES               L**3   RATES FOR THIS TIME STEP           L**3/T
   ------------------                      ------------------------

                                     IN                                         IN
                                     --                                         --
        PRECIPITATION =        4.6531D+08          PRECIPITATION =                  
           STREAMFLOW =                               STREAMFLOW =                  
     GW BOUNDARY FLOW =                         GW BOUNDARY FLOW =                  


                                    OUT                                        OUT
                                    ---                                        ---
   EVAPOTRANSPIRATION =        2.9820D+08     EVAPOTRANSPIRATION =          13622.89
           STREAMFLOW =        1.7413D+08             STREAMFLOW =           5862.16
     GW BOUNDARY FLOW =        3762578.04       GW BOUNDARY FLOW =            649.10

   INFLOWS - OUTFLOWS =       -1.0776D+07     INFLOWS - OUTFLOWS =         -20134.15
             --------                                   --------

 TOTAL STORAGE CHANGE =       -1.0678D+07         STORAGE CHANGE =         -20143.87
       --------------                             --------------
         LAND SURFACE =          17057.93           LAND SURFACE =          -1080.58
            SOIL ZONE =         107088.94              SOIL ZONE =           -168.87
     UNSATURATED ZONE =        5139876.81       UNSATURATED ZONE =         -19912.21
       SATURATED ZONE =       -1.5942D+07         SATURATED ZONE =           1017.79

 OVERALL BUDGET ERROR =         -98063.13           BUDGET ERROR =              9.72


  PERCENT DISCREPANCY =             -0.02    PERCENT DISCREPANCY =              0.05



1
 SUMMARY VOLUMETRIC BUDGET FOR GSFLOW 
 DATE: 09 10 1996              CUMULATIVE TIME STEP:    5824
 MODFLOW STRESS PERIOD      2     CURRENT TIME STEP:    5824     ITERATIONS:      18

 -----------------------------------------------------------------------------------

   CUMULATIVE VOLUMES               L**3   RATES FOR THIS TIME STEP           L**3/T
   ------------------                      ------------------------

                                     IN                                         IN
                                     --                                         --
        PRECIPITATION =        4.6531D+08          PRECIPITATION =                  
           STREAMFLOW =                               STREAMFLOW =                  
     GW BOUNDARY FLOW =                         GW BOUNDARY FLOW =                  


                                    OUT                                        OUT
                                    ---                                        ---
   EVAPOTRANSPIRATION =        2.9828D+08     EVAPOTRANSPIRATION =          13256.79
           STREAMFLOW =        1.7417D+08             STREAMFLOW =           5770.74
     GW BOUNDARY FLOW =        3767120.11       GW BOUNDARY FLOW =            648.70

   INFLOWS - OUTFLOWS =       -1.0905D+07     INFLOWS - OUTFLOWS =         -19676.23
             --------                                   --------

 TOTAL STORAGE CHANGE =       -1.0807D+07         STORAGE CHANGE =         -19685.60
       --------------                             --------------
         LAND SURFACE =          10644.28           LAND SURFACE =           -976.08
            SOIL ZONE =         116295.27              SOIL ZONE =            -22.63
     UNSATURATED ZONE =        5000876.62       UNSATURATED ZONE =         -19759.82
       SATURATED ZONE =       -1.5934D+07         SATURATED ZONE =           1072.94

 OVERALL BUDGET ERROR =         -97996.05           BUDGET ERROR =              9.37


  PERCENT DISCREPANCY =             -0.02    PERCENT DISCREPANCY =              0.05



1
 SUMMARY VOLUMETRIC BUDGET FOR GSFLOW 
 DATE: 09 17 1996              CUMULATIVE TIME STEP:    5831
 MODFLOW STRESS PERIOD      2     CURRENT TIME STEP:    5831     ITERATIONS:      18

 -----------------------------------------------------------------------------------

   CUMULATIVE VOLUMES               L**3   RATES FOR THIS TIME STEP           L**3/T
   ------------------                      ------------------------

                                     IN                                         IN
                                     --                                         --
        PRECIPITATION =        4.6637D+08          PRECIPITATION =                  
           STREAMFLOW =                               STREAMFLOW =                  
     GW BOUNDARY FLOW =                         GW BOUNDARY FLOW =                  


                                    OUT                                        OUT
                                    ---                                        ---
   EVAPOTRANSPIRATION =        2.9849D+08     EVAPOTRANSPIRATION =          74571.48
           STREAMFLOW =        1.7423D+08             STREAMFLOW =           9747.38
     GW BOUNDARY FLOW =        3771661.53       GW BOUNDARY FLOW =            649.10

   INFLOWS - OUTFLOWS =       -1.0125D+07     INFLOWS - OUTFLOWS =         -84967.96
             --------                                   --------

 TOTAL STORAGE CHANGE =       -1.0027D+07         STORAGE CHANGE =         -84981.62
       --------------                             --------------
         LAND SURFACE =           6180.91           LAND SURFACE =         -34896.28
            SOIL ZONE =        1028390.50              SOIL ZONE =         -31581.84
     UNSATURATED ZONE =        4865656.68       UNSATURATED ZONE =         -19110.14
       SATURATED ZONE =       -1.5927D+07         SATURATED ZONE =            606.64

 OVERALL BUDGET ERROR =         -97920.07           BUDGET ERROR =             13.66


  PERCENT DISCREPANCY =             -0.02    PERCENT DISCREPANCY =              0.02



1
 SUMMARY VOLUMETRIC BUDGET FOR GSFLOW 
 DATE: 09 24 1996              CUMULATIVE TIME STEP:    5838
 MODFLOW STRESS PERIOD      2     CURRENT TIME STEP:    5838     ITERATIONS:      18

 -----------------------------------------------------------------------------------

   CUMULATIVE VOLUMES               L**3   RATES FOR THIS TIME STEP           L**3/T
   ------------------                      ------------------------

                                     IN                                         IN
                                     --                                         --
        PRECIPITATION =        4.6637D+08          PRECIPITATION =                  
           STREAMFLOW =                               STREAMFLOW =                  
     GW BOUNDARY FLOW =                         GW BOUNDARY FLOW =                  


                                    OUT                                        OUT
                                    ---                                        ---
   EVAPOTRANSPIRATION =        2.9900D+08     EVAPOTRANSPIRATION =          50429.39
           STREAMFLOW =        1.7428D+08             STREAMFLOW =           6085.76
     GW BOUNDARY FLOW =        3776201.19       GW BOUNDARY FLOW =            648.19

   INFLOWS - OUTFLOWS =       -1.0694D+07     INFLOWS - OUTFLOWS =         -57163.35
             --------                                   --------

 TOTAL STORAGE CHANGE =       -1.0596D+07         STORAGE CHANGE =         -57174.74
       --------------                             --------------
         LAND SURFACE =           2675.39           LAND SURFACE =           -481.80
            SOIL ZONE =         591218.54              SOIL ZONE =         -38368.23
     UNSATURATED ZONE =        4734196.56       UNSATURATED ZONE =         -18530.92
       SATURATED ZONE =       -1.5925D+07         SATURATED ZONE =            206.20

 OVERALL BUDGET ERROR =         -97835.39           BUDGET ERROR =             11.40


  PERCENT DISCREPANCY =             -0.02    PERCENT DISCREPANCY =              0.02



