1
 SUMMARY VOLUMETRIC BUDGET FOR GSFLOW 
 DATE: 10 07 1980              CUMULATIVE TIME STEP:       7
 MODFLOW STRESS PERIOD      2     CURRENT TIME STEP:       7     ITERATIONS:       6

 -----------------------------------------------------------------------------------

   CUMULATIVE VOLUMES               L**3   RATES FOR THIS TIME STEP           L**3/T
   ------------------                      ------------------------

                                     IN                                         IN
                                     --                                         --
        PRECIPITATION =                            PRECIPITATION =                  
           STREAMFLOW =                               STREAMFLOW =                  
     GW BOUNDARY FLOW =                         GW BOUNDARY FLOW =                  


                                    OUT                                        OUT
                                    ---                                        ---
   EVAPOTRANSPIRATION =          64707.80     EVAPOTRANSPIRATION =           9413.79
           STREAMFLOW =          42957.63             STREAMFLOW =           6065.77
     GW BOUNDARY FLOW =           4541.44       GW BOUNDARY FLOW =            648.70

   INFLOWS - OUTFLOWS =        -112206.87     INFLOWS - OUTFLOWS =         -16128.26
             --------                                   --------

 TOTAL STORAGE CHANGE =        -111751.08         STORAGE CHANGE =         -16059.95
       --------------                             --------------
         LAND SURFACE =                             LAND SURFACE =                  
            SOIL ZONE =          45809.25              SOIL ZONE =           6282.63
     UNSATURATED ZONE =        -144777.37       UNSATURATED ZONE =         -20360.11
       SATURATED ZONE =         -12782.96         SATURATED ZONE =          -1982.46

 OVERALL BUDGET ERROR =           -455.78           BUDGET ERROR =            -68.32


  PERCENT DISCREPANCY =             -0.41    PERCENT DISCREPANCY =             -0.42



1
 SUMMARY VOLUMETRIC BUDGET FOR GSFLOW 
 DATE: 10 14 1980              CUMULATIVE TIME STEP:      14
 MODFLOW STRESS PERIOD      2     CURRENT TIME STEP:      14     ITERATIONS:       6

 -----------------------------------------------------------------------------------

   CUMULATIVE VOLUMES               L**3   RATES FOR THIS TIME STEP           L**3/T
   ------------------                      ------------------------

                                     IN                                         IN
                                     --                                         --
        PRECIPITATION =         650780.39          PRECIPITATION =         164754.68
           STREAMFLOW =                               STREAMFLOW =                  
     GW BOUNDARY FLOW =                         GW BOUNDARY FLOW =                  


                                    OUT                                        OUT
                                    ---                                        ---
   EVAPOTRANSPIRATION =         161627.38     EVAPOTRANSPIRATION =          10547.16
           STREAMFLOW =          94485.71             STREAMFLOW =           7726.76
     GW BOUNDARY FLOW =           9082.96       GW BOUNDARY FLOW =            648.94

   INFLOWS - OUTFLOWS =         385584.35     INFLOWS - OUTFLOWS =         145831.83
             --------                                   --------

 TOTAL STORAGE CHANGE =         386555.04         STORAGE CHANGE =         145905.23
       --------------                             --------------
         LAND SURFACE =         183752.11           LAND SURFACE =         130549.81
            SOIL ZONE =         514738.87              SOIL ZONE =          37374.01
     UNSATURATED ZONE =        -284494.57       UNSATURATED ZONE =         -19623.99
       SATURATED ZONE =         -27441.37         SATURATED ZONE =          -2394.60

 OVERALL BUDGET ERROR =           -970.69           BUDGET ERROR =            -73.40


  PERCENT DISCREPANCY =             -0.15    PERCENT DISCREPANCY =             -0.04



1
 SUMMARY VOLUMETRIC BUDGET FOR GSFLOW 
 DATE: 10 21 1980              CUMULATIVE TIME STEP:      21
 MODFLOW STRESS PERIOD      2     CURRENT TIME STEP:      21     ITERATIONS:       6

 -----------------------------------------------------------------------------------

   CUMULATIVE VOLUMES               L**3   RATES FOR THIS TIME STEP           L**3/T
   ------------------                      ------------------------

                                     IN                                         IN
                                     --                                         --
        PRECIPITATION =         733156.23          PRECIPITATION =                  
           STREAMFLOW =                               STREAMFLOW =                  
     GW BOUNDARY FLOW =                         GW BOUNDARY FLOW =                  


                                    OUT                                        OUT
                                    ---                                        ---
   EVAPOTRANSPIRATION =         409861.52     EVAPOTRANSPIRATION =          36566.06
           STREAMFLOW =         145876.59             STREAMFLOW =           6877.93
     GW BOUNDARY FLOW =          13624.72       GW BOUNDARY FLOW =            648.74

   INFLOWS - OUTFLOWS =         163793.40     INFLOWS - OUTFLOWS =         -44092.73
             --------                                   --------

 TOTAL STORAGE CHANGE =         165273.77         STORAGE CHANGE =         -44012.32
       --------------                             --------------
         LAND SURFACE =                             LAND SURFACE =                  
            SOIL ZONE =         630345.67              SOIL ZONE =         -22161.39
     UNSATURATED ZONE =        -418687.75       UNSATURATED ZONE =         -18824.23
       SATURATED ZONE =         -46384.15         SATURATED ZONE =          -3026.70

 OVERALL BUDGET ERROR =          -1480.37           BUDGET ERROR =            -80.41


  PERCENT DISCREPANCY =             -0.20    PERCENT DISCREPANCY =             -0.18



1
 SUMMARY VOLUMETRIC BUDGET FOR GSFLOW 
 DATE: 10 28 1980              CUMULATIVE TIME STEP:      28
 MODFLOW STRESS PERIOD      2     CURRENT TIME STEP:      28     ITERATIONS:       6

 -----------------------------------------------------------------------------------

   CUMULATIVE VOLUMES               L**3   RATES FOR THIS TIME STEP           L**3/T
   ------------------                      ------------------------

                                     IN                                         IN
                                     --                                         --
        PRECIPITATION =        1070899.96          PRECIPITATION =                  
           STREAMFLOW =                               STREAMFLOW =                  
     GW BOUNDARY FLOW =                         GW BOUNDARY FLOW =                  


                                    OUT                                        OUT
                                    ---                                        ---
   EVAPOTRANSPIRATION =         588967.41     EVAPOTRANSPIRATION =          24794.04
           STREAMFLOW =         199270.90             STREAMFLOW =           7741.78
     GW BOUNDARY FLOW =          18165.84       GW BOUNDARY FLOW =            648.77

   INFLOWS - OUTFLOWS =         264495.81     INFLOWS - OUTFLOWS =         -33184.59
             --------                                   --------

 TOTAL STORAGE CHANGE =         266556.54         STORAGE CHANGE =         -33097.05
       --------------                             --------------
         LAND SURFACE =          20573.21           LAND SURFACE =         -29874.97
            SOIL ZONE =         862473.57              SOIL ZONE =          18301.45
     UNSATURATED ZONE =        -547429.59       UNSATURATED ZONE =         -18029.46
       SATURATED ZONE =         -69060.64         SATURATED ZONE =          -3494.08

 OVERALL BUDGET ERROR =          -2060.73           BUDGET ERROR =            -87.54


  PERCENT DISCREPANCY =             -0.19    PERCENT DISCREPANCY =             -0.26



1
 SUMMARY VOLUMETRIC BUDGET FOR GSFLOW 
 DATE: 11 04 1980              CUMULATIVE TIME STEP:      35
 MODFLOW STRESS PERIOD      2     CURRENT TIME STEP:      35     ITERATIONS:       9

 -----------------------------------------------------------------------------------

   CUMULATIVE VOLUMES               L**3   RATES FOR THIS TIME STEP           L**3/T
   ------------------                      ------------------------

                                     IN                                         IN
                                     --                                         --
        PRECIPITATION =        1070899.96          PRECIPITATION =                  
           STREAMFLOW =                               STREAMFLOW =                  
     GW BOUNDARY FLOW =                         GW BOUNDARY FLOW =                  


                                    OUT                                        OUT
                                    ---                                        ---
   EVAPOTRANSPIRATION =         863261.79     EVAPOTRANSPIRATION =          31691.88
           STREAMFLOW =         250230.31             STREAMFLOW =           6834.18
     GW BOUNDARY FLOW =          22706.60       GW BOUNDARY FLOW =            648.61

   INFLOWS - OUTFLOWS =         -65298.74     INFLOWS - OUTFLOWS =         -39174.67
             --------                                   --------

 TOTAL STORAGE CHANGE =         -62757.94         STORAGE CHANGE =         -39119.39
       --------------                             --------------
         LAND SURFACE =                             LAND SURFACE =                  
            SOIL ZONE =         704602.46              SOIL ZONE =         -17573.77
     UNSATURATED ZONE =        -670912.80       UNSATURATED ZONE =         -17355.97
       SATURATED ZONE =         -96447.60         SATURATED ZONE =          -4189.65

 OVERALL BUDGET ERROR =          -2540.80           BUDGET ERROR =            -55.28


  PERCENT DISCREPANCY =             -0.22    PERCENT DISCREPANCY =             -0.14



1
 SUMMARY VOLUMETRIC BUDGET FOR GSFLOW 
 DATE: 11 11 1980              CUMULATIVE TIME STEP:      42
 MODFLOW STRESS PERIOD      2     CURRENT TIME STEP:      42     ITERATIONS:       7

 -----------------------------------------------------------------------------------

   CUMULATIVE VOLUMES               L**3   RATES FOR THIS TIME STEP           L**3/T
   ------------------                      ------------------------

                                     IN                                         IN
                                     --                                         --
        PRECIPITATION =        1573759.34          PRECIPITATION =         255182.10
           STREAMFLOW =                               STREAMFLOW =                  
     GW BOUNDARY FLOW =                         GW BOUNDARY FLOW =                  


                                    OUT                                        OUT
                                    ---                                        ---
   EVAPOTRANSPIRATION =        1066453.05     EVAPOTRANSPIRATION =          14294.45
           STREAMFLOW =         305195.46             STREAMFLOW =          10480.36
     GW BOUNDARY FLOW =          27247.17       GW BOUNDARY FLOW =            648.82

   INFLOWS - OUTFLOWS =         174863.65     INFLOWS - OUTFLOWS =         229758.47
             --------                                   --------

 TOTAL STORAGE CHANGE =         177961.88         STORAGE CHANGE =         229823.08
       --------------                             --------------
         LAND SURFACE =          76836.74           LAND SURFACE =          76836.74
            SOIL ZONE =        1017180.30              SOIL ZONE =         173743.89
     UNSATURATED ZONE =        -789565.04       UNSATURATED ZONE =         -16599.75
       SATURATED ZONE =        -126490.12         SATURATED ZONE =          -4157.81

 OVERALL BUDGET ERROR =          -3098.23           BUDGET ERROR =            -64.61


  PERCENT DISCREPANCY =             -0.20    PERCENT DISCREPANCY =             -0.03



1
 SUMMARY VOLUMETRIC BUDGET FOR GSFLOW 
 DATE: 11 18 1980              CUMULATIVE TIME STEP:      49
 MODFLOW STRESS PERIOD      2     CURRENT TIME STEP:      49     ITERATIONS:       6

 -----------------------------------------------------------------------------------

   CUMULATIVE VOLUMES               L**3   RATES FOR THIS TIME STEP           L**3/T
   ------------------                      ------------------------

                                     IN                                         IN
                                     --                                         --
        PRECIPITATION =        1573759.34          PRECIPITATION =                  
           STREAMFLOW =                               STREAMFLOW =                  
     GW BOUNDARY FLOW =                         GW BOUNDARY FLOW =                  


                                    OUT                                        OUT
                                    ---                                        ---
   EVAPOTRANSPIRATION =        1161462.83     EVAPOTRANSPIRATION =          21275.16
           STREAMFLOW =         366140.62             STREAMFLOW =           9110.31
     GW BOUNDARY FLOW =          31788.80       GW BOUNDARY FLOW =            648.83

   INFLOWS - OUTFLOWS =          14367.09     INFLOWS - OUTFLOWS =         -31034.29
             --------                                   --------

 TOTAL STORAGE CHANGE =          18050.87         STORAGE CHANGE =         -30928.69
       --------------                             --------------
         LAND SURFACE =           5398.38           LAND SURFACE =          -7586.23
            SOIL ZONE =        1075754.50              SOIL ZONE =          -2503.77
     UNSATURATED ZONE =        -903551.76       UNSATURATED ZONE =         -16024.15
       SATURATED ZONE =        -159550.25         SATURATED ZONE =          -4814.54

 OVERALL BUDGET ERROR =          -3683.78           BUDGET ERROR =           -105.61


  PERCENT DISCREPANCY =             -0.23    PERCENT DISCREPANCY =             -0.34



1
 SUMMARY VOLUMETRIC BUDGET FOR GSFLOW 
 DATE: 11 25 1980              CUMULATIVE TIME STEP:      56
 MODFLOW STRESS PERIOD      2     CURRENT TIME STEP:      56     ITERATIONS:      10

 -----------------------------------------------------------------------------------

   CUMULATIVE VOLUMES               L**3   RATES FOR THIS TIME STEP           L**3/T
   ------------------                      ------------------------

                                     IN                                         IN
                                     --                                         --
        PRECIPITATION =        1648813.76          PRECIPITATION =                  
           STREAMFLOW =                               STREAMFLOW =                  
     GW BOUNDARY FLOW =                         GW BOUNDARY FLOW =                  


                                    OUT                                        OUT
                                    ---                                        ---
   EVAPOTRANSPIRATION =        1242307.02     EVAPOTRANSPIRATION =           9312.07
           STREAMFLOW =         431053.01             STREAMFLOW =           9529.48
     GW BOUNDARY FLOW =          36330.78       GW BOUNDARY FLOW =            648.88

   INFLOWS - OUTFLOWS =         -60877.06     INFLOWS - OUTFLOWS =         -19490.43
             --------                                   --------

 TOTAL STORAGE CHANGE =         -56562.75         STORAGE CHANGE =         -19436.64
       --------------                             --------------
         LAND SURFACE =          53187.47           LAND SURFACE =          -9260.11
            SOIL ZONE =        1099250.45              SOIL ZONE =          10636.11
     UNSATURATED ZONE =       -1013247.44       UNSATURATED ZONE =         -15392.31
       SATURATED ZONE =        -195753.23         SATURATED ZONE =          -5420.33

 OVERALL BUDGET ERROR =          -4314.31           BUDGET ERROR =            -53.80


  PERCENT DISCREPANCY =             -0.25    PERCENT DISCREPANCY =             -0.28



1
 SUMMARY VOLUMETRIC BUDGET FOR GSFLOW 
 DATE: 12 02 1980              CUMULATIVE TIME STEP:      63
 MODFLOW STRESS PERIOD      2     CURRENT TIME STEP:      63     ITERATIONS:       8

 -----------------------------------------------------------------------------------

   CUMULATIVE VOLUMES               L**3   RATES FOR THIS TIME STEP           L**3/T
   ------------------                      ------------------------

                                     IN                                         IN
                                     --                                         --
        PRECIPITATION =        2076620.74          PRECIPITATION =                  
           STREAMFLOW =                               STREAMFLOW =                  
     GW BOUNDARY FLOW =                         GW BOUNDARY FLOW =                  


                                    OUT                                        OUT
                                    ---                                        ---
   EVAPOTRANSPIRATION =        1445794.60     EVAPOTRANSPIRATION =          37029.13
           STREAMFLOW =         512089.16             STREAMFLOW =          14801.13
     GW BOUNDARY FLOW =          40874.21       GW BOUNDARY FLOW =            649.37

   INFLOWS - OUTFLOWS =          77862.76     INFLOWS - OUTFLOWS =         -52479.62
             --------                                   --------

 TOTAL STORAGE CHANGE =          82610.37         STORAGE CHANGE =         -52421.71
       --------------                             --------------
         LAND SURFACE =         139443.43           LAND SURFACE =         -82002.01
            SOIL ZONE =        1290877.73              SOIL ZONE =          47195.89
     UNSATURATED ZONE =       -1115269.89       UNSATURATED ZONE =         -13017.44
       SATURATED ZONE =        -232440.90         SATURATED ZONE =          -4598.15

 OVERALL BUDGET ERROR =          -4747.61           BUDGET ERROR =            -57.91


  PERCENT DISCREPANCY =             -0.23    PERCENT DISCREPANCY =             -0.11



1
 SUMMARY VOLUMETRIC BUDGET FOR GSFLOW 
 DATE: 12 09 1980              CUMULATIVE TIME STEP:      70
 MODFLOW STRESS PERIOD      2     CURRENT TIME STEP:      70     ITERATIONS:       7

 -----------------------------------------------------------------------------------

   CUMULATIVE VOLUMES               L**3   RATES FOR THIS TIME STEP           L**3/T
   ------------------                      ------------------------

                                     IN                                         IN
                                     --                                         --
        PRECIPITATION =        4284363.13          PRECIPITATION =                  
           STREAMFLOW =                               STREAMFLOW =                  
     GW BOUNDARY FLOW =                         GW BOUNDARY FLOW =                  


                                    OUT                                        OUT
                                    ---                                        ---
   EVAPOTRANSPIRATION =        1472350.10     EVAPOTRANSPIRATION =           4180.71
           STREAMFLOW =         609176.47             STREAMFLOW =          14254.02
     GW BOUNDARY FLOW =          45420.63       GW BOUNDARY FLOW =            649.59

   INFLOWS - OUTFLOWS =        2157415.94     INFLOWS - OUTFLOWS =         -19084.32
             --------                                   --------

 TOTAL STORAGE CHANGE =        2162668.04         STORAGE CHANGE =         -19020.40
       --------------                             --------------
         LAND SURFACE =        2319000.21           LAND SURFACE =          -4180.71
            SOIL ZONE =        1328679.57              SOIL ZONE =           5282.79
     UNSATURATED ZONE =       -1213811.12       UNSATURATED ZONE =         -14246.21
       SATURATED ZONE =        -271200.63         SATURATED ZONE =          -5876.26

 OVERALL BUDGET ERROR =          -5252.10           BUDGET ERROR =            -63.93


  PERCENT DISCREPANCY =             -0.12    PERCENT DISCREPANCY =             -0.34



1
 SUMMARY VOLUMETRIC BUDGET FOR GSFLOW 
 DATE: 12 16 1980              CUMULATIVE TIME STEP:      77
 MODFLOW STRESS PERIOD      2     CURRENT TIME STEP:      77     ITERATIONS:       7

 -----------------------------------------------------------------------------------

   CUMULATIVE VOLUMES               L**3   RATES FOR THIS TIME STEP           L**3/T
   ------------------                      ------------------------

                                     IN                                         IN
                                     --                                         --
        PRECIPITATION =        4284363.13          PRECIPITATION =                  
           STREAMFLOW =                               STREAMFLOW =                  
     GW BOUNDARY FLOW =                         GW BOUNDARY FLOW =                  


                                    OUT                                        OUT
                                    ---                                        ---
   EVAPOTRANSPIRATION =        1624100.74     EVAPOTRANSPIRATION =          35681.34
           STREAMFLOW =         729970.74             STREAMFLOW =          25541.32
     GW BOUNDARY FLOW =          49969.08       GW BOUNDARY FLOW =            650.26

   INFLOWS - OUTFLOWS =        1880322.57     INFLOWS - OUTFLOWS =         -61872.92
             --------                                   --------

 TOTAL STORAGE CHANGE =        1886053.19         STORAGE CHANGE =         -61804.27
       --------------                             --------------
         LAND SURFACE =        1981773.90           LAND SURFACE =        -138704.95
            SOIL ZONE =        1518287.15              SOIL ZONE =          89996.46
     UNSATURATED ZONE =       -1303104.09       UNSATURATED ZONE =          -8795.91
       SATURATED ZONE =        -310903.76         SATURATED ZONE =          -4299.86

 OVERALL BUDGET ERROR =          -5730.63           BUDGET ERROR =            -68.65


  PERCENT DISCREPANCY =             -0.13    PERCENT DISCREPANCY =             -0.11



1
 SUMMARY VOLUMETRIC BUDGET FOR GSFLOW 
 DATE: 12 23 1980              CUMULATIVE TIME STEP:      84
 MODFLOW STRESS PERIOD      2     CURRENT TIME STEP:      84     ITERATIONS:       9

 -----------------------------------------------------------------------------------

   CUMULATIVE VOLUMES               L**3   RATES FOR THIS TIME STEP           L**3/T
   ------------------                      ------------------------

                                     IN                                         IN
                                     --                                         --
        PRECIPITATION =        4516755.31          PRECIPITATION =                  
           STREAMFLOW =                               STREAMFLOW =                  
     GW BOUNDARY FLOW =                         GW BOUNDARY FLOW =                  


                                    OUT                                        OUT
                                    ---                                        ---
   EVAPOTRANSPIRATION =        1844131.80     EVAPOTRANSPIRATION =          37557.68
           STREAMFLOW =         964651.42             STREAMFLOW =          31422.79
     GW BOUNDARY FLOW =          54529.94       GW BOUNDARY FLOW =            652.01

   INFLOWS - OUTFLOWS =        1653442.16     INFLOWS - OUTFLOWS =         -69632.49
             --------                                   --------

 TOTAL STORAGE CHANGE =        1659481.69         STORAGE CHANGE =         -69597.91
       --------------                             --------------
         LAND SURFACE =        1331470.55           LAND SURFACE =         -52543.77
            SOIL ZONE =        2007042.31              SOIL ZONE =          -7817.84
     UNSATURATED ZONE =       -1341009.77       UNSATURATED ZONE =          -4784.53
       SATURATED ZONE =        -338021.40         SATURATED ZONE =          -4451.77

 OVERALL BUDGET ERROR =          -6039.53           BUDGET ERROR =            -34.57


  PERCENT DISCREPANCY =             -0.13    PERCENT DISCREPANCY =             -0.05



1
 SUMMARY VOLUMETRIC BUDGET FOR GSFLOW 
 DATE: 12 30 1980              CUMULATIVE TIME STEP:      91
 MODFLOW STRESS PERIOD      2     CURRENT TIME STEP:      91     ITERATIONS:      11

 -----------------------------------------------------------------------------------

   CUMULATIVE VOLUMES               L**3   RATES FOR THIS TIME STEP           L**3/T
   ------------------                      ------------------------

                                     IN                                         IN
                                     --                                         --
        PRECIPITATION =        4516755.31          PRECIPITATION =                  
           STREAMFLOW =                               STREAMFLOW =                  
     GW BOUNDARY FLOW =                         GW BOUNDARY FLOW =                  


                                    OUT                                        OUT
                                    ---                                        ---
   EVAPOTRANSPIRATION =        2224237.56     EVAPOTRANSPIRATION =          48689.89
           STREAMFLOW =        1215260.91             STREAMFLOW =          27499.33
     GW BOUNDARY FLOW =          59097.16       GW BOUNDARY FLOW =            652.41

   INFLOWS - OUTFLOWS =        1018159.68     INFLOWS - OUTFLOWS =         -76841.62
             --------                                   --------

 TOTAL STORAGE CHANGE =        1024377.50         STORAGE CHANGE =         -76825.44
       --------------                             --------------
         LAND SURFACE =         529446.97           LAND SURFACE =         -41358.17
            SOIL ZONE =        2201794.18              SOIL ZONE =         -26605.28
     UNSATURATED ZONE =       -1345072.72       UNSATURATED ZONE =          -4828.81
       SATURATED ZONE =        -361790.93         SATURATED ZONE =          -4033.17

 OVERALL BUDGET ERROR =          -6217.82           BUDGET ERROR =            -16.19


  PERCENT DISCREPANCY =             -0.14    PERCENT DISCREPANCY =             -0.02



1
 SUMMARY VOLUMETRIC BUDGET FOR GSFLOW 
 DATE: 01 06 1981              CUMULATIVE TIME STEP:      98
 MODFLOW STRESS PERIOD      2     CURRENT TIME STEP:      98     ITERATIONS:       8

 -----------------------------------------------------------------------------------

   CUMULATIVE VOLUMES               L**3   RATES FOR THIS TIME STEP           L**3/T
   ------------------                      ------------------------

                                     IN                                         IN
                                     --                                         --
        PRECIPITATION =        5004445.82          PRECIPITATION =                  
           STREAMFLOW =                               STREAMFLOW =                  
     GW BOUNDARY FLOW =                         GW BOUNDARY FLOW =                  


                                    OUT                                        OUT
                                    ---                                        ---
   EVAPOTRANSPIRATION =        2455730.94     EVAPOTRANSPIRATION =          21291.83
           STREAMFLOW =        1363049.54             STREAMFLOW =          20012.36
     GW BOUNDARY FLOW =          63658.07       GW BOUNDARY FLOW =            651.09

   INFLOWS - OUTFLOWS =        1122007.26     INFLOWS - OUTFLOWS =         -41955.28
             --------                                   --------

 TOTAL STORAGE CHANGE =        1128439.95         STORAGE CHANGE =         -41912.09
       --------------                             --------------
         LAND SURFACE =         783105.34           LAND SURFACE =         -28174.19
            SOIL ZONE =        2166372.90              SOIL ZONE =           4332.66
     UNSATURATED ZONE =       -1420331.70       UNSATURATED ZONE =         -12088.67
       SATURATED ZONE =        -400706.59         SATURATED ZONE =          -5981.89

 OVERALL BUDGET ERROR =          -6432.68           BUDGET ERROR =            -43.19


  PERCENT DISCREPANCY =             -0.13    PERCENT DISCREPANCY =             -0.10



1
 SUMMARY VOLUMETRIC BUDGET FOR GSFLOW 
 DATE: 01 13 1981              CUMULATIVE TIME STEP:     105
 MODFLOW STRESS PERIOD      2     CURRENT TIME STEP:     105     ITERATIONS:       7

 -----------------------------------------------------------------------------------

   CUMULATIVE VOLUMES               L**3   RATES FOR THIS TIME STEP           L**3/T
   ------------------                      ------------------------

                                     IN                                         IN
                                     --                                         --
        PRECIPITATION =        5004445.82          PRECIPITATION =                  
           STREAMFLOW =                               STREAMFLOW =                  
     GW BOUNDARY FLOW =                         GW BOUNDARY FLOW =                  


                                    OUT                                        OUT
                                    ---                                        ---
   EVAPOTRANSPIRATION =        2667559.61     EVAPOTRANSPIRATION =          43754.80
           STREAMFLOW =        1508686.93             STREAMFLOW =          20100.45
     GW BOUNDARY FLOW =          68214.68       GW BOUNDARY FLOW =            650.82

   INFLOWS - OUTFLOWS =         759984.59     INFLOWS - OUTFLOWS =         -64506.07
             --------                                   --------

 TOTAL STORAGE CHANGE =         766795.14         STORAGE CHANGE =         -64450.09
       --------------                             --------------
         LAND SURFACE =         556998.15           LAND SURFACE =         -38369.48
            SOIL ZONE =        2144223.38              SOIL ZONE =         -10081.99
     UNSATURATED ZONE =       -1489473.92       UNSATURATED ZONE =          -9368.58
       SATURATED ZONE =        -444952.47         SATURATED ZONE =          -6630.04

 OVERALL BUDGET ERROR =          -6810.55           BUDGET ERROR =            -55.98


  PERCENT DISCREPANCY =             -0.14    PERCENT DISCREPANCY =             -0.09



1
 SUMMARY VOLUMETRIC BUDGET FOR GSFLOW 
 DATE: 01 20 1981              CUMULATIVE TIME STEP:     112
 MODFLOW STRESS PERIOD      2     CURRENT TIME STEP:     112     ITERATIONS:       8

 -----------------------------------------------------------------------------------

   CUMULATIVE VOLUMES               L**3   RATES FOR THIS TIME STEP           L**3/T
   ------------------                      ------------------------

                                     IN                                         IN
                                     --                                         --
        PRECIPITATION =        5170468.48          PRECIPITATION =          41503.16
           STREAMFLOW =                               STREAMFLOW =                  
     GW BOUNDARY FLOW =                         GW BOUNDARY FLOW =                  


                                    OUT                                        OUT
                                    ---                                        ---
   EVAPOTRANSPIRATION =        2967626.86     EVAPOTRANSPIRATION =          54062.79
           STREAMFLOW =        1647006.81             STREAMFLOW =          19506.27
     GW BOUNDARY FLOW =          72769.19       GW BOUNDARY FLOW =            650.57

   INFLOWS - OUTFLOWS =         483065.62     INFLOWS - OUTFLOWS =         -32716.46
             --------                                   --------

 TOTAL STORAGE CHANGE =         490264.10         STORAGE CHANGE =         -32674.59
       --------------                             --------------
         LAND SURFACE =         392560.19           LAND SURFACE =           1262.98
            SOIL ZONE =        2117032.71              SOIL ZONE =         -23725.43
     UNSATURATED ZONE =       -1528756.31       UNSATURATED ZONE =          -3409.04
       SATURATED ZONE =        -490572.50         SATURATED ZONE =          -6803.10

 OVERALL BUDGET ERROR =          -7198.48           BUDGET ERROR =            -41.87


  PERCENT DISCREPANCY =             -0.14    PERCENT DISCREPANCY =             -0.06



1
 SUMMARY VOLUMETRIC BUDGET FOR GSFLOW 
 DATE: 01 27 1981              CUMULATIVE TIME STEP:     119
 MODFLOW STRESS PERIOD      2     CURRENT TIME STEP:     119     ITERATIONS:       8

 -----------------------------------------------------------------------------------

   CUMULATIVE VOLUMES               L**3   RATES FOR THIS TIME STEP           L**3/T
   ------------------                      ------------------------

                                     IN                                         IN
                                     --                                         --
        PRECIPITATION =        8646542.90          PRECIPITATION =        2936504.96
           STREAMFLOW =                               STREAMFLOW =                  
     GW BOUNDARY FLOW =                         GW BOUNDARY FLOW =                  


                                    OUT                                        OUT
                                    ---                                        ---
   EVAPOTRANSPIRATION =        3198648.22     EVAPOTRANSPIRATION =          12593.32
           STREAMFLOW =        1781592.38             STREAMFLOW =          17800.27
     GW BOUNDARY FLOW =          77322.45       GW BOUNDARY FLOW =            650.31

   INFLOWS - OUTFLOWS =        3588979.84     INFLOWS - OUTFLOWS =        2905461.06
             --------                                   --------

 TOTAL STORAGE CHANGE =        3596414.70         STORAGE CHANGE =        2905493.94
       --------------                             --------------
         LAND SURFACE =        3531533.77           LAND SURFACE =        2923911.72
            SOIL ZONE =        2149513.77              SOIL ZONE =          -4060.98
     UNSATURATED ZONE =       -1545276.45       UNSATURATED ZONE =          -7110.52
       SATURATED ZONE =        -539356.40         SATURATED ZONE =          -7246.28

 OVERALL BUDGET ERROR =          -7434.85           BUDGET ERROR =            -32.88


  PERCENT DISCREPANCY =             -0.09    PERCENT DISCREPANCY =             -0.00



1
 SUMMARY VOLUMETRIC BUDGET FOR GSFLOW 
 DATE: 02 03 1981              CUMULATIVE TIME STEP:     126
 MODFLOW STRESS PERIOD      2     CURRENT TIME STEP:     126     ITERATIONS:       8

 -----------------------------------------------------------------------------------

   CUMULATIVE VOLUMES               L**3   RATES FOR THIS TIME STEP           L**3/T
   ------------------                      ------------------------

                                     IN                                         IN
                                     --                                         --
        PRECIPITATION =        1.1739D+07          PRECIPITATION =                  
           STREAMFLOW =                               STREAMFLOW =                  
     GW BOUNDARY FLOW =                         GW BOUNDARY FLOW =                  


                                    OUT                                        OUT
                                    ---                                        ---
   EVAPOTRANSPIRATION =        3235996.71     EVAPOTRANSPIRATION =           8130.85
           STREAMFLOW =        1905255.57             STREAMFLOW =          17729.98
     GW BOUNDARY FLOW =          81874.01       GW BOUNDARY FLOW =            650.21

   INFLOWS - OUTFLOWS =        6515571.48     INFLOWS - OUTFLOWS =         -26511.04
             --------                                   --------

 TOTAL STORAGE CHANGE =        6523303.62         STORAGE CHANGE =         -26474.60
       --------------                             --------------
         LAND SURFACE =        6586340.17           LAND SURFACE =          -8130.85
            SOIL ZONE =        2147799.67              SOIL ZONE =            842.87
     UNSATURATED ZONE =       -1618146.24       UNSATURATED ZONE =         -11309.92
       SATURATED ZONE =        -592689.98         SATURATED ZONE =          -7876.70

 OVERALL BUDGET ERROR =          -7732.14           BUDGET ERROR =            -36.44


  PERCENT DISCREPANCY =             -0.07    PERCENT DISCREPANCY =             -0.14



1
 SUMMARY VOLUMETRIC BUDGET FOR GSFLOW 
 DATE: 02 10 1981              CUMULATIVE TIME STEP:     133
 MODFLOW STRESS PERIOD      2     CURRENT TIME STEP:     133     ITERATIONS:       7

 -----------------------------------------------------------------------------------

   CUMULATIVE VOLUMES               L**3   RATES FOR THIS TIME STEP           L**3/T
   ------------------                      ------------------------

                                     IN                                         IN
                                     --                                         --
        PRECIPITATION =        1.1838D+07          PRECIPITATION =                  
           STREAMFLOW =                               STREAMFLOW =                  
     GW BOUNDARY FLOW =                         GW BOUNDARY FLOW =                  


                                    OUT                                        OUT
                                    ---                                        ---
   EVAPOTRANSPIRATION =        3369799.06     EVAPOTRANSPIRATION =          34657.17
           STREAMFLOW =        2030171.83             STREAMFLOW =          17911.22
     GW BOUNDARY FLOW =          86425.52       GW BOUNDARY FLOW =            650.21

   INFLOWS - OUTFLOWS =        6351866.82     INFLOWS - OUTFLOWS =         -53218.61
             --------                                   --------

 TOTAL STORAGE CHANGE =        6359975.10         STORAGE CHANGE =         -53158.39
       --------------                             --------------
         LAND SURFACE =        6552103.28           LAND SURFACE =         -34657.17
            SOIL ZONE =        2153066.23              SOIL ZONE =            674.93
     UNSATURATED ZONE =       -1694761.43       UNSATURATED ZONE =         -10681.02
       SATURATED ZONE =        -650432.99         SATURATED ZONE =          -8495.13

 OVERALL BUDGET ERROR =          -8108.27           BUDGET ERROR =            -60.22


  PERCENT DISCREPANCY =             -0.07    PERCENT DISCREPANCY =             -0.11



1
 SUMMARY VOLUMETRIC BUDGET FOR GSFLOW 
 DATE: 02 17 1981              CUMULATIVE TIME STEP:     140
 MODFLOW STRESS PERIOD      2     CURRENT TIME STEP:     140     ITERATIONS:      14

 -----------------------------------------------------------------------------------

   CUMULATIVE VOLUMES               L**3   RATES FOR THIS TIME STEP           L**3/T
   ------------------                      ------------------------

                                     IN                                         IN
                                     --                                         --
        PRECIPITATION =        1.2765D+07          PRECIPITATION =          68928.68
           STREAMFLOW =                               STREAMFLOW =                  
     GW BOUNDARY FLOW =                         GW BOUNDARY FLOW =                  


                                    OUT                                        OUT
                                    ---                                        ---
   EVAPOTRANSPIRATION =        3717956.74     EVAPOTRANSPIRATION =          71030.99
           STREAMFLOW =        2550129.16             STREAMFLOW =         123203.88
     GW BOUNDARY FLOW =          90998.15       GW BOUNDARY FLOW =            656.66

   INFLOWS - OUTFLOWS =        6405896.62     INFLOWS - OUTFLOWS =        -125962.86
             --------                                   --------

 TOTAL STORAGE CHANGE =        6414306.84         STORAGE CHANGE =        -125946.68
       --------------                             --------------
         LAND SURFACE =        5604894.42           LAND SURFACE =        -287595.36
            SOIL ZONE =        2948498.82              SOIL ZONE =          82820.60
     UNSATURATED ZONE =       -1469386.85       UNSATURATED ZONE =          76644.05
       SATURATED ZONE =        -669699.56         SATURATED ZONE =           2184.03

 OVERALL BUDGET ERROR =          -8410.22           BUDGET ERROR =            -16.18


  PERCENT DISCREPANCY =             -0.07    PERCENT DISCREPANCY =             -0.01



1
 SUMMARY VOLUMETRIC BUDGET FOR GSFLOW 
 DATE: 02 24 1981              CUMULATIVE TIME STEP:     147
 MODFLOW STRESS PERIOD      2     CURRENT TIME STEP:     147     ITERATIONS:      14

 -----------------------------------------------------------------------------------

   CUMULATIVE VOLUMES               L**3   RATES FOR THIS TIME STEP           L**3/T
   ------------------                      ------------------------

                                     IN                                         IN
                                     --                                         --
        PRECIPITATION =        1.3179D+07          PRECIPITATION =         344647.71
           STREAMFLOW =                               STREAMFLOW =                  
     GW BOUNDARY FLOW =                         GW BOUNDARY FLOW =                  


                                    OUT                                        OUT
                                    ---                                        ---
   EVAPOTRANSPIRATION =        4094073.53     EVAPOTRANSPIRATION =          19832.91
           STREAMFLOW =        3122673.34             STREAMFLOW =          50895.00
     GW BOUNDARY FLOW =          95592.46       GW BOUNDARY FLOW =            655.29

   INFLOWS - OUTFLOWS =        5866219.12     INFLOWS - OUTFLOWS =         273264.51
             --------                                   --------

 TOTAL STORAGE CHANGE =        5874586.76         STORAGE CHANGE =         273255.97
       --------------                             --------------
         LAND SURFACE =        4925109.86           LAND SURFACE =         300251.61
            SOIL ZONE =        2696351.59              SOIL ZONE =         -57824.80
     UNSATURATED ZONE =       -1100231.06       UNSATURATED ZONE =          28499.76
       SATURATED ZONE =        -646643.63         SATURATED ZONE =           2329.41

 OVERALL BUDGET ERROR =          -8367.64           BUDGET ERROR =              8.54


  PERCENT DISCREPANCY =             -0.06    PERCENT DISCREPANCY =              0.00



1
 SUMMARY VOLUMETRIC BUDGET FOR GSFLOW 
 DATE: 03 03 1981              CUMULATIVE TIME STEP:     154
 MODFLOW STRESS PERIOD      2     CURRENT TIME STEP:     154     ITERATIONS:      11

 -----------------------------------------------------------------------------------

   CUMULATIVE VOLUMES               L**3   RATES FOR THIS TIME STEP           L**3/T
   ------------------                      ------------------------

                                     IN                                         IN
                                     --                                         --
        PRECIPITATION =        1.3447D+07          PRECIPITATION =                  
           STREAMFLOW =                               STREAMFLOW =                  
     GW BOUNDARY FLOW =                         GW BOUNDARY FLOW =                  


                                    OUT                                        OUT
                                    ---                                        ---
   EVAPOTRANSPIRATION =        4256745.48     EVAPOTRANSPIRATION =          44568.32
           STREAMFLOW =        3344705.34             STREAMFLOW =          27133.61
     GW BOUNDARY FLOW =         100165.43       GW BOUNDARY FLOW =            652.27

   INFLOWS - OUTFLOWS =        5745002.54     INFLOWS - OUTFLOWS =         -72354.19
             --------                                   --------

 TOTAL STORAGE CHANGE =        5753272.63         STORAGE CHANGE =         -72367.98
       --------------                             --------------
         LAND SURFACE =        5011972.56           LAND SURFACE =         -61722.17
            SOIL ZONE =        2485499.97              SOIL ZONE =            503.10
     UNSATURATED ZONE =       -1091871.13       UNSATURATED ZONE =          -8711.53
       SATURATED ZONE =        -652328.77         SATURATED ZONE =          -2437.38

 OVERALL BUDGET ERROR =          -8270.09           BUDGET ERROR =             13.79


  PERCENT DISCREPANCY =             -0.06    PERCENT DISCREPANCY =              0.02



1
 SUMMARY VOLUMETRIC BUDGET FOR GSFLOW 
 DATE: 03 10 1981              CUMULATIVE TIME STEP:     161
 MODFLOW STRESS PERIOD      2     CURRENT TIME STEP:     161     ITERATIONS:      11

 -----------------------------------------------------------------------------------

   CUMULATIVE VOLUMES               L**3   RATES FOR THIS TIME STEP           L**3/T
   ------------------                      ------------------------

                                     IN                                         IN
                                     --                                         --
        PRECIPITATION =        1.3493D+07          PRECIPITATION =                  
           STREAMFLOW =                               STREAMFLOW =                  
     GW BOUNDARY FLOW =                         GW BOUNDARY FLOW =                  


                                    OUT                                        OUT
                                    ---                                        ---
   EVAPOTRANSPIRATION =        4597920.44     EVAPOTRANSPIRATION =          71562.45
           STREAMFLOW =        3573514.32             STREAMFLOW =          42027.00
     GW BOUNDARY FLOW =         104731.11       GW BOUNDARY FLOW =            652.84

   INFLOWS - OUTFLOWS =        5216788.64     INFLOWS - OUTFLOWS =        -114242.28
             --------                                   --------

 TOTAL STORAGE CHANGE =        5224991.89         STORAGE CHANGE =        -114243.91
       --------------                             --------------
         LAND SURFACE =        4369723.81           LAND SURFACE =        -162552.80
            SOIL ZONE =        2590682.91              SOIL ZONE =          28486.92
     UNSATURATED ZONE =       -1067885.86       UNSATURATED ZONE =          20707.79
       SATURATED ZONE =        -667528.97         SATURATED ZONE =           -885.82

 OVERALL BUDGET ERROR =          -8203.24           BUDGET ERROR =              1.62


  PERCENT DISCREPANCY =             -0.06    PERCENT DISCREPANCY =              0.00



1
 SUMMARY VOLUMETRIC BUDGET FOR GSFLOW 
 DATE: 03 17 1981              CUMULATIVE TIME STEP:     168
 MODFLOW STRESS PERIOD      2     CURRENT TIME STEP:     168     ITERATIONS:       9

 -----------------------------------------------------------------------------------

   CUMULATIVE VOLUMES               L**3   RATES FOR THIS TIME STEP           L**3/T
   ------------------                      ------------------------

                                     IN                                         IN
                                     --                                         --
        PRECIPITATION =        1.3745D+07          PRECIPITATION =                  
           STREAMFLOW =                               STREAMFLOW =                  
     GW BOUNDARY FLOW =                         GW BOUNDARY FLOW =                  


                                    OUT                                        OUT
                                    ---                                        ---
   EVAPOTRANSPIRATION =        4957376.70     EVAPOTRANSPIRATION =          39557.19
           STREAMFLOW =        3796761.65             STREAMFLOW =          23718.38
     GW BOUNDARY FLOW =         109298.24       GW BOUNDARY FLOW =            651.88

   INFLOWS - OUTFLOWS =        4881066.23     INFLOWS - OUTFLOWS =         -63927.46
             --------                                   --------

 TOTAL STORAGE CHANGE =        4889197.03         STORAGE CHANGE =         -63928.76
       --------------                             --------------
         LAND SURFACE =        4198119.41           LAND SURFACE =         -39206.25
            SOIL ZONE =        2429664.86              SOIL ZONE =          -4419.39
     UNSATURATED ZONE =       -1052472.03       UNSATURATED ZONE =         -15683.09
       SATURATED ZONE =        -686115.22         SATURATED ZONE =          -4620.03

 OVERALL BUDGET ERROR =          -8130.80           BUDGET ERROR =              1.31


  PERCENT DISCREPANCY =             -0.06    PERCENT DISCREPANCY =              0.00



1
 SUMMARY VOLUMETRIC BUDGET FOR GSFLOW 
 DATE: 03 24 1981              CUMULATIVE TIME STEP:     175
 MODFLOW STRESS PERIOD      2     CURRENT TIME STEP:     175     ITERATIONS:      10

 -----------------------------------------------------------------------------------

   CUMULATIVE VOLUMES               L**3   RATES FOR THIS TIME STEP           L**3/T
   ------------------                      ------------------------

                                     IN                                         IN
                                     --                                         --
        PRECIPITATION =        1.4367D+07          PRECIPITATION =                  
           STREAMFLOW =                               STREAMFLOW =                  
     GW BOUNDARY FLOW =                         GW BOUNDARY FLOW =                  


                                    OUT                                        OUT
                                    ---                                        ---
   EVAPOTRANSPIRATION =        5310449.14     EVAPOTRANSPIRATION =          85696.82
           STREAMFLOW =        3962473.87             STREAMFLOW =          25246.92
     GW BOUNDARY FLOW =         113858.13       GW BOUNDARY FLOW =            651.30

   INFLOWS - OUTFLOWS =        4979975.10     INFLOWS - OUTFLOWS =        -111595.04
             --------                                   --------

 TOTAL STORAGE CHANGE =        4988145.53         STORAGE CHANGE =        -111589.97
       --------------                             --------------
         LAND SURFACE =        4528959.87           LAND SURFACE =         -63588.51
            SOIL ZONE =        2316416.86              SOIL ZONE =         -36086.45
     UNSATURATED ZONE =       -1133722.77       UNSATURATED ZONE =          -6422.52
       SATURATED ZONE =        -723508.43         SATURATED ZONE =          -5492.50

 OVERALL BUDGET ERROR =          -8170.43           BUDGET ERROR =             -5.07


  PERCENT DISCREPANCY =             -0.06    PERCENT DISCREPANCY =             -0.00



1
 SUMMARY VOLUMETRIC BUDGET FOR GSFLOW 
 DATE: 03 31 1981              CUMULATIVE TIME STEP:     182
 MODFLOW STRESS PERIOD      2     CURRENT TIME STEP:     182     ITERATIONS:      12

 -----------------------------------------------------------------------------------

   CUMULATIVE VOLUMES               L**3   RATES FOR THIS TIME STEP           L**3/T
   ------------------                      ------------------------

                                     IN                                         IN
                                     --                                         --
        PRECIPITATION =        1.5777D+07          PRECIPITATION =                  
           STREAMFLOW =                               STREAMFLOW =                  
     GW BOUNDARY FLOW =                         GW BOUNDARY FLOW =                  


                                    OUT                                        OUT
                                    ---                                        ---
   EVAPOTRANSPIRATION =        5735958.49     EVAPOTRANSPIRATION =          55421.24
           STREAMFLOW =        4413074.81             STREAMFLOW =          33473.66
     GW BOUNDARY FLOW =         118436.79       GW BOUNDARY FLOW =            653.16

   INFLOWS - OUTFLOWS =        5509296.09     INFLOWS - OUTFLOWS =         -89548.05
             --------                                   --------

 TOTAL STORAGE CHANGE =        5517419.08         STORAGE CHANGE =         -89566.86
       --------------                             --------------
         LAND SURFACE =        4697103.34           LAND SURFACE =         -55743.36
            SOIL ZONE =        2493976.71              SOIL ZONE =         -31826.07
     UNSATURATED ZONE =        -947156.18       UNSATURATED ZONE =            297.44
       SATURATED ZONE =        -726504.78         SATURATED ZONE =          -2294.86

 OVERALL BUDGET ERROR =          -8122.99           BUDGET ERROR =             18.80


  PERCENT DISCREPANCY =             -0.05    PERCENT DISCREPANCY =              0.02



1
 SUMMARY VOLUMETRIC BUDGET FOR GSFLOW 
 DATE: 04 07 1981              CUMULATIVE TIME STEP:     189
 MODFLOW STRESS PERIOD      2     CURRENT TIME STEP:     189     ITERATIONS:      10

 -----------------------------------------------------------------------------------

   CUMULATIVE VOLUMES               L**3   RATES FOR THIS TIME STEP           L**3/T
   ------------------                      ------------------------

                                     IN                                         IN
                                     --                                         --
        PRECIPITATION =        1.6121D+07          PRECIPITATION =                  
           STREAMFLOW =                               STREAMFLOW =                  
     GW BOUNDARY FLOW =                         GW BOUNDARY FLOW =                  


                                    OUT                                        OUT
                                    ---                                        ---
   EVAPOTRANSPIRATION =        6381563.08     EVAPOTRANSPIRATION =         106275.95
           STREAMFLOW =        4709892.05             STREAMFLOW =          42265.77
     GW BOUNDARY FLOW =         123009.97       GW BOUNDARY FLOW =            653.58

   INFLOWS - OUTFLOWS =        4907018.05     INFLOWS - OUTFLOWS =        -149195.30
             --------                                   --------

 TOTAL STORAGE CHANGE =        4915071.91         STORAGE CHANGE =        -149207.34
       --------------                             --------------
         LAND SURFACE =        4078016.24           LAND SURFACE =        -145758.59
            SOIL ZONE =        2453131.78              SOIL ZONE =         -13384.27
     UNSATURATED ZONE =        -881391.41       UNSATURATED ZONE =          10626.33
       SATURATED ZONE =        -734684.70         SATURATED ZONE =           -690.81

 OVERALL BUDGET ERROR =          -8053.86           BUDGET ERROR =             12.04


  PERCENT DISCREPANCY =             -0.05    PERCENT DISCREPANCY =              0.01



1
 SUMMARY VOLUMETRIC BUDGET FOR GSFLOW 
 DATE: 04 14 1981              CUMULATIVE TIME STEP:     196
 MODFLOW STRESS PERIOD      2     CURRENT TIME STEP:     196     ITERATIONS:      13

 -----------------------------------------------------------------------------------

   CUMULATIVE VOLUMES               L**3   RATES FOR THIS TIME STEP           L**3/T
   ------------------                      ------------------------

                                     IN                                         IN
                                     --                                         --
        PRECIPITATION =        1.6121D+07          PRECIPITATION =                  
           STREAMFLOW =                               STREAMFLOW =                  
     GW BOUNDARY FLOW =                         GW BOUNDARY FLOW =                  


                                    OUT                                        OUT
                                    ---                                        ---
   EVAPOTRANSPIRATION =        7308594.12     EVAPOTRANSPIRATION =         190847.08
           STREAMFLOW =        5035174.36             STREAMFLOW =          55413.36
     GW BOUNDARY FLOW =         127584.55       GW BOUNDARY FLOW =            653.52

   INFLOWS - OUTFLOWS =        3650130.12     INFLOWS - OUTFLOWS =        -246913.97
             --------                                   --------

 TOTAL STORAGE CHANGE =        3658084.24         STORAGE CHANGE =        -246924.93
       --------------                             --------------
         LAND SURFACE =        2766600.61           LAND SURFACE =        -261667.29
            SOIL ZONE =        2411103.38              SOIL ZONE =          -6969.29
     UNSATURATED ZONE =        -783710.90       UNSATURATED ZONE =          20540.26
       SATURATED ZONE =        -735908.84         SATURATED ZONE =           1171.38

 OVERALL BUDGET ERROR =          -7954.13           BUDGET ERROR =             10.97


  PERCENT DISCREPANCY =             -0.05    PERCENT DISCREPANCY =              0.00



1
 SUMMARY VOLUMETRIC BUDGET FOR GSFLOW 
 DATE: 04 21 1981              CUMULATIVE TIME STEP:     203
 MODFLOW STRESS PERIOD      2     CURRENT TIME STEP:     203     ITERATIONS:      13

 -----------------------------------------------------------------------------------

   CUMULATIVE VOLUMES               L**3   RATES FOR THIS TIME STEP           L**3/T
   ------------------                      ------------------------

                                     IN                                         IN
                                     --                                         --
        PRECIPITATION =        1.6310D+07          PRECIPITATION =                  
           STREAMFLOW =                               STREAMFLOW =                  
     GW BOUNDARY FLOW =                         GW BOUNDARY FLOW =                  


                                    OUT                                        OUT
                                    ---                                        ---
   EVAPOTRANSPIRATION =        8401042.27     EVAPOTRANSPIRATION =         161783.39
           STREAMFLOW =        5377248.01             STREAMFLOW =          46261.53
     GW BOUNDARY FLOW =         132155.34       GW BOUNDARY FLOW =            652.58

   INFLOWS - OUTFLOWS =        2399811.80     INFLOWS - OUTFLOWS =        -208697.50
             --------                                   --------

 TOTAL STORAGE CHANGE =        2407670.46         STORAGE CHANGE =        -208719.77
       --------------                             --------------
         LAND SURFACE =        1526141.71           LAND SURFACE =        -128414.83
            SOIL ZONE =        2260710.42              SOIL ZONE =        -101030.24
     UNSATURATED ZONE =        -653819.12       UNSATURATED ZONE =          18639.42
       SATURATED ZONE =        -725362.56         SATURATED ZONE =           2085.87

 OVERALL BUDGET ERROR =          -7858.66           BUDGET ERROR =             22.27


  PERCENT DISCREPANCY =             -0.05    PERCENT DISCREPANCY =              0.01



1
 SUMMARY VOLUMETRIC BUDGET FOR GSFLOW 
 DATE: 04 28 1981              CUMULATIVE TIME STEP:     210
 MODFLOW STRESS PERIOD      2     CURRENT TIME STEP:     210     ITERATIONS:      13

 -----------------------------------------------------------------------------------

   CUMULATIVE VOLUMES               L**3   RATES FOR THIS TIME STEP           L**3/T
   ------------------                      ------------------------

                                     IN                                         IN
                                     --                                         --
        PRECIPITATION =        1.6515D+07          PRECIPITATION =                  
           STREAMFLOW =                               STREAMFLOW =                  
     GW BOUNDARY FLOW =                         GW BOUNDARY FLOW =                  


                                    OUT                                        OUT
                                    ---                                        ---
   EVAPOTRANSPIRATION =        9681660.60     EVAPOTRANSPIRATION =         204108.78
           STREAMFLOW =        5586322.83             STREAMFLOW =          23064.63
     GW BOUNDARY FLOW =         136714.29       GW BOUNDARY FLOW =            650.33

   INFLOWS - OUTFLOWS =        1110749.22     INFLOWS - OUTFLOWS =        -227823.74
             --------                                   --------

 TOTAL STORAGE CHANGE =        1118473.73         STORAGE CHANGE =        -227842.09
       --------------                             --------------
         LAND SURFACE =         765041.89           LAND SURFACE =         -86581.37
            SOIL ZONE =        1720688.88              SOIL ZONE =        -136444.62
     UNSATURATED ZONE =        -640120.25       UNSATURATED ZONE =          -3734.86
       SATURATED ZONE =        -727136.80         SATURATED ZONE =          -1081.23

 OVERALL BUDGET ERROR =          -7724.50           BUDGET ERROR =             18.35


  PERCENT DISCREPANCY =             -0.05    PERCENT DISCREPANCY =              0.01



1
 SUMMARY VOLUMETRIC BUDGET FOR GSFLOW 
 DATE: 05 05 1981              CUMULATIVE TIME STEP:     217
 MODFLOW STRESS PERIOD      2     CURRENT TIME STEP:     217     ITERATIONS:      14

 -----------------------------------------------------------------------------------

   CUMULATIVE VOLUMES               L**3   RATES FOR THIS TIME STEP           L**3/T
   ------------------                      ------------------------

                                     IN                                         IN
                                     --                                         --
        PRECIPITATION =        1.6515D+07          PRECIPITATION =                  
           STREAMFLOW =                               STREAMFLOW =                  
     GW BOUNDARY FLOW =                         GW BOUNDARY FLOW =                  


                                    OUT                                        OUT
                                    ---                                        ---
   EVAPOTRANSPIRATION =        1.0588D+07     EVAPOTRANSPIRATION =          57981.21
           STREAMFLOW =        5684680.62             STREAMFLOW =          10181.64
     GW BOUNDARY FLOW =         141259.57       GW BOUNDARY FLOW =            648.66

   INFLOWS - OUTFLOWS =         101039.21     INFLOWS - OUTFLOWS =         -68811.51
             --------                                   --------

 TOTAL STORAGE CHANGE =         108717.21         STORAGE CHANGE =         -68814.62
       --------------                             --------------
         LAND SURFACE =         399244.38           LAND SURFACE =         -19315.26
            SOIL ZONE =        1185818.62              SOIL ZONE =         -30614.13
     UNSATURATED ZONE =        -728828.55       UNSATURATED ZONE =         -15701.99
       SATURATED ZONE =        -747517.25         SATURATED ZONE =          -3183.24

 OVERALL BUDGET ERROR =          -7678.00           BUDGET ERROR =              3.11


  PERCENT DISCREPANCY =             -0.05    PERCENT DISCREPANCY =              0.00



1
 SUMMARY VOLUMETRIC BUDGET FOR GSFLOW 
 DATE: 05 12 1981              CUMULATIVE TIME STEP:     224
 MODFLOW STRESS PERIOD      2     CURRENT TIME STEP:     224     ITERATIONS:      11

 -----------------------------------------------------------------------------------

   CUMULATIVE VOLUMES               L**3   RATES FOR THIS TIME STEP           L**3/T
   ------------------                      ------------------------

                                     IN                                         IN
                                     --                                         --
        PRECIPITATION =        1.6515D+07          PRECIPITATION =                  
           STREAMFLOW =                               STREAMFLOW =                  
     GW BOUNDARY FLOW =                         GW BOUNDARY FLOW =                  


                                    OUT                                        OUT
                                    ---                                        ---
   EVAPOTRANSPIRATION =        1.1120D+07     EVAPOTRANSPIRATION =          94905.57
           STREAMFLOW =        5752667.70             STREAMFLOW =          10223.71
     GW BOUNDARY FLOW =         145797.52       GW BOUNDARY FLOW =            648.14

   INFLOWS - OUTFLOWS =        -502603.40     INFLOWS - OUTFLOWS =        -105777.42
             --------                                   --------

 TOTAL STORAGE CHANGE =        -494972.64         STORAGE CHANGE =        -105783.89
       --------------                             --------------
         LAND SURFACE =         236028.84           LAND SURFACE =         -28466.58
            SOIL ZONE =         878397.83              SOIL ZONE =         -59031.80
     UNSATURATED ZONE =        -829485.04       UNSATURATED ZONE =         -12706.54
       SATURATED ZONE =        -779914.27         SATURATED ZONE =          -5578.97

 OVERALL BUDGET ERROR =          -7630.77           BUDGET ERROR =              6.47


  PERCENT DISCREPANCY =             -0.04    PERCENT DISCREPANCY =              0.01



1
 SUMMARY VOLUMETRIC BUDGET FOR GSFLOW 
 DATE: 05 19 1981              CUMULATIVE TIME STEP:     231
 MODFLOW STRESS PERIOD      2     CURRENT TIME STEP:     231     ITERATIONS:      14

 -----------------------------------------------------------------------------------

   CUMULATIVE VOLUMES               L**3   RATES FOR THIS TIME STEP           L**3/T
   ------------------                      ------------------------

                                     IN                                         IN
                                     --                                         --
        PRECIPITATION =        1.7837D+07          PRECIPITATION =         169047.83
           STREAMFLOW =                               STREAMFLOW =                  
     GW BOUNDARY FLOW =                         GW BOUNDARY FLOW =                  


                                    OUT                                        OUT
                                    ---                                        ---
   EVAPOTRANSPIRATION =        1.1542D+07     EVAPOTRANSPIRATION =          34209.10
           STREAMFLOW =        5872022.55             STREAMFLOW =          21929.26
     GW BOUNDARY FLOW =         150336.25       GW BOUNDARY FLOW =            649.25

   INFLOWS - OUTFLOWS =         273166.00     INFLOWS - OUTFLOWS =         112260.22
             --------                                   --------

 TOTAL STORAGE CHANGE =         280792.21         STORAGE CHANGE =         112262.45
       --------------                             --------------
         LAND SURFACE =         199378.20           LAND SURFACE =          20104.58
            SOIL ZONE =        1795969.79              SOIL ZONE =          99913.91
     UNSATURATED ZONE =        -890941.65       UNSATURATED ZONE =           -832.44
       SATURATED ZONE =        -823614.13         SATURATED ZONE =          -6923.60

 OVERALL BUDGET ERROR =          -7626.22           BUDGET ERROR =             -2.22


  PERCENT DISCREPANCY =             -0.04    PERCENT DISCREPANCY =             -0.00



1
 SUMMARY VOLUMETRIC BUDGET FOR GSFLOW 
 DATE: 05 26 1981              CUMULATIVE TIME STEP:     238
 MODFLOW STRESS PERIOD      2     CURRENT TIME STEP:     238     ITERATIONS:      13

 -----------------------------------------------------------------------------------

   CUMULATIVE VOLUMES               L**3   RATES FOR THIS TIME STEP           L**3/T
   ------------------                      ------------------------

                                     IN                                         IN
                                     --                                         --
        PRECIPITATION =        1.8252D+07          PRECIPITATION =         284301.98
           STREAMFLOW =                               STREAMFLOW =                  
     GW BOUNDARY FLOW =                         GW BOUNDARY FLOW =                  


                                    OUT                                        OUT
                                    ---                                        ---
   EVAPOTRANSPIRATION =        1.2438D+07     EVAPOTRANSPIRATION =         143528.55
           STREAMFLOW =        5971229.84             STREAMFLOW =          17716.41
     GW BOUNDARY FLOW =         154875.82       GW BOUNDARY FLOW =            648.32

   INFLOWS - OUTFLOWS =        -311647.58     INFLOWS - OUTFLOWS =         122408.70
             --------                                   --------

 TOTAL STORAGE CHANGE =        -304008.87         STORAGE CHANGE =         122410.20
       --------------                             --------------
         LAND SURFACE =         121447.13           LAND SURFACE =          -8077.84
            SOIL ZONE =        1400472.74              SOIL ZONE =         148019.11
     UNSATURATED ZONE =        -949116.89       UNSATURATED ZONE =         -10134.41
       SATURATED ZONE =        -876811.84         SATURATED ZONE =          -7396.67

 OVERALL BUDGET ERROR =          -7638.71           BUDGET ERROR =             -1.50


  PERCENT DISCREPANCY =             -0.04    PERCENT DISCREPANCY =             -0.00



1
 SUMMARY VOLUMETRIC BUDGET FOR GSFLOW 
 DATE: 06 02 1981              CUMULATIVE TIME STEP:     245
 MODFLOW STRESS PERIOD      2     CURRENT TIME STEP:     245     ITERATIONS:      12

 -----------------------------------------------------------------------------------

   CUMULATIVE VOLUMES               L**3   RATES FOR THIS TIME STEP           L**3/T
   ------------------                      ------------------------

                                     IN                                         IN
                                     --                                         --
        PRECIPITATION =        1.8318D+07          PRECIPITATION =          50867.39
           STREAMFLOW =                               STREAMFLOW =                  
     GW BOUNDARY FLOW =                         GW BOUNDARY FLOW =                  


                                    OUT                                        OUT
                                    ---                                        ---
   EVAPOTRANSPIRATION =        1.3237D+07     EVAPOTRANSPIRATION =          74880.20
           STREAMFLOW =        6036815.61             STREAMFLOW =           7535.16
     GW BOUNDARY FLOW =         159410.12       GW BOUNDARY FLOW =            647.37

   INFLOWS - OUTFLOWS =       -1115380.78     INFLOWS - OUTFLOWS =         -32195.34
             --------                                   --------

 TOTAL STORAGE CHANGE =       -1107701.90         STORAGE CHANGE =         -32188.65
       --------------                             --------------
         LAND SURFACE =          76065.80           LAND SURFACE =          28539.47
            SOIL ZONE =         783600.81              SOIL ZONE =         -39402.02
     UNSATURATED ZONE =       -1029920.37       UNSATURATED ZONE =         -12293.90
       SATURATED ZONE =        -937448.14         SATURATED ZONE =          -9032.19

 OVERALL BUDGET ERROR =          -7678.88           BUDGET ERROR =             -6.69


  PERCENT DISCREPANCY =             -0.04    PERCENT DISCREPANCY =             -0.01



1
 SUMMARY VOLUMETRIC BUDGET FOR GSFLOW 
 DATE: 06 09 1981              CUMULATIVE TIME STEP:     252
 MODFLOW STRESS PERIOD      2     CURRENT TIME STEP:     252     ITERATIONS:      15

 -----------------------------------------------------------------------------------

   CUMULATIVE VOLUMES               L**3   RATES FOR THIS TIME STEP           L**3/T
   ------------------                      ------------------------

                                     IN                                         IN
                                     --                                         --
        PRECIPITATION =        1.8318D+07          PRECIPITATION =                  
           STREAMFLOW =                               STREAMFLOW =                  
     GW BOUNDARY FLOW =                         GW BOUNDARY FLOW =                  


                                    OUT                                        OUT
                                    ---                                        ---
   EVAPOTRANSPIRATION =        1.3712D+07     EVAPOTRANSPIRATION =          49921.63
           STREAMFLOW =        6083398.11             STREAMFLOW =           6279.50
     GW BOUNDARY FLOW =         163939.69       GW BOUNDARY FLOW =            646.92

   INFLOWS - OUTFLOWS =       -1641431.02     INFLOWS - OUTFLOWS =         -56848.06
             --------                                   --------

 TOTAL STORAGE CHANGE =       -1633680.80         STORAGE CHANGE =         -56847.38
       --------------                             --------------
         LAND SURFACE =          13609.96           LAND SURFACE =          -3000.14
            SOIL ZONE =         473137.38              SOIL ZONE =         -31862.39
     UNSATURATED ZONE =       -1116137.38       UNSATURATED ZONE =         -12153.69
       SATURATED ZONE =       -1004290.76         SATURATED ZONE =          -9831.16

 OVERALL BUDGET ERROR =          -7750.22           BUDGET ERROR =             -0.68


  PERCENT DISCREPANCY =             -0.04    PERCENT DISCREPANCY =             -0.00



1
 SUMMARY VOLUMETRIC BUDGET FOR GSFLOW 
 DATE: 06 16 1981              CUMULATIVE TIME STEP:     259
 MODFLOW STRESS PERIOD      2     CURRENT TIME STEP:     259     ITERATIONS:      13

 -----------------------------------------------------------------------------------

   CUMULATIVE VOLUMES               L**3   RATES FOR THIS TIME STEP           L**3/T
   ------------------                      ------------------------

                                     IN                                         IN
                                     --                                         --
        PRECIPITATION =        1.8318D+07          PRECIPITATION =                  
           STREAMFLOW =                               STREAMFLOW =                  
     GW BOUNDARY FLOW =                         GW BOUNDARY FLOW =                  


                                    OUT                                        OUT
                                    ---                                        ---
   EVAPOTRANSPIRATION =        1.3902D+07     EVAPOTRANSPIRATION =          44005.47
           STREAMFLOW =        6126110.36             STREAMFLOW =           6036.60
     GW BOUNDARY FLOW =         168467.23       GW BOUNDARY FLOW =            646.71

   INFLOWS - OUTFLOWS =       -1878010.26     INFLOWS - OUTFLOWS =         -50688.78
             --------                                   --------

 TOTAL STORAGE CHANGE =       -1870232.69         STORAGE CHANGE =         -50692.15
       --------------                             --------------
         LAND SURFACE =           6267.42           LAND SURFACE =          -1304.38
            SOIL ZONE =         396516.62              SOIL ZONE =         -27712.34
     UNSATURATED ZONE =       -1198779.29       UNSATURATED ZONE =         -11657.27
       SATURATED ZONE =       -1074237.45         SATURATED ZONE =         -10018.15

 OVERALL BUDGET ERROR =          -7777.57           BUDGET ERROR =              3.37


  PERCENT DISCREPANCY =             -0.04    PERCENT DISCREPANCY =              0.01



1
 SUMMARY VOLUMETRIC BUDGET FOR GSFLOW 
 DATE: 06 23 1981              CUMULATIVE TIME STEP:     266
 MODFLOW STRESS PERIOD      2     CURRENT TIME STEP:     266     ITERATIONS:      10

 -----------------------------------------------------------------------------------

   CUMULATIVE VOLUMES               L**3   RATES FOR THIS TIME STEP           L**3/T
   ------------------                      ------------------------

                                     IN                                         IN
                                     --                                         --
        PRECIPITATION =        1.8318D+07          PRECIPITATION =                  
           STREAMFLOW =                               STREAMFLOW =                  
     GW BOUNDARY FLOW =                         GW BOUNDARY FLOW =                  


                                    OUT                                        OUT
                                    ---                                        ---
   EVAPOTRANSPIRATION =        1.4177D+07     EVAPOTRANSPIRATION =          32513.33
           STREAMFLOW =        6167669.84             STREAMFLOW =           5881.34
     GW BOUNDARY FLOW =         172993.52       GW BOUNDARY FLOW =            646.54

   INFLOWS - OUTFLOWS =       -2199605.55     INFLOWS - OUTFLOWS =         -39041.21
             --------                                   --------

 TOTAL STORAGE CHANGE =       -2191769.93         STORAGE CHANGE =         -39021.08
       --------------                             --------------
         LAND SURFACE =                             LAND SURFACE =                  
            SOIL ZONE =         231773.35              SOIL ZONE =         -17645.34
     UNSATURATED ZONE =       -1278075.89       UNSATURATED ZONE =         -10984.65
       SATURATED ZONE =       -1145467.39         SATURATED ZONE =         -10391.09

 OVERALL BUDGET ERROR =          -7835.62           BUDGET ERROR =            -20.13


  PERCENT DISCREPANCY =             -0.04    PERCENT DISCREPANCY =             -0.05



1
 SUMMARY VOLUMETRIC BUDGET FOR GSFLOW 
 DATE: 06 30 1981              CUMULATIVE TIME STEP:     273
 MODFLOW STRESS PERIOD      2     CURRENT TIME STEP:     273     ITERATIONS:      13

 -----------------------------------------------------------------------------------

   CUMULATIVE VOLUMES               L**3   RATES FOR THIS TIME STEP           L**3/T
   ------------------                      ------------------------

                                     IN                                         IN
[...]
                                    ---                                        ---
   EVAPOTRANSPIRATION =        2.9680D+08     EVAPOTRANSPIRATION =          41042.96
           STREAMFLOW =        1.7419D+08             STREAMFLOW =           6659.65
     GW BOUNDARY FLOW =        3735320.38       GW BOUNDARY FLOW =            650.80

   INFLOWS - OUTFLOWS =       -9660070.35     INFLOWS - OUTFLOWS =         -48353.41
             --------                                   --------

 TOTAL STORAGE CHANGE =       -9511452.74         STORAGE CHANGE =         -48369.29
       --------------                             --------------
         LAND SURFACE =         152692.45           LAND SURFACE =          -6818.24
            SOIL ZONE =         232008.47              SOIL ZONE =         -21119.92
     UNSATURATED ZONE =        6091444.65       UNSATURATED ZONE =         -26436.79
       SATURATED ZONE =       -1.5988D+07         SATURATED ZONE =           6005.66

 OVERALL BUDGET ERROR =        -148617.61           BUDGET ERROR =             15.88


  PERCENT DISCREPANCY =             -0.03    PERCENT DISCREPANCY =              0.03



1
 SUMMARY VOLUMETRIC BUDGET FOR GSFLOW 
 DATE: 07 30 1996              CUMULATIVE TIME STEP:    5782
 MODFLOW STRESS PERIOD      2     CURRENT TIME STEP:    5782     ITERATIONS:      14

 -----------------------------------------------------------------------------------

   CUMULATIVE VOLUMES               L**3   RATES FOR THIS TIME STEP           L**3/T
   ------------------                      ------------------------

                                     IN                                         IN
                                     --                                         --
        PRECIPITATION =        4.6511D+08          PRECIPITATION =                  
           STREAMFLOW =                               STREAMFLOW =                  
     GW BOUNDARY FLOW =                         GW BOUNDARY FLOW =                  


                                    OUT                                        OUT
                                    ---                                        ---
   EVAPOTRANSPIRATION =        2.9706D+08     EVAPOTRANSPIRATION =          30665.63
           STREAMFLOW =        1.7423D+08             STREAMFLOW =           6510.74
     GW BOUNDARY FLOW =        3739874.26       GW BOUNDARY FLOW =            650.38

   INFLOWS - OUTFLOWS =       -9925256.17     INFLOWS - OUTFLOWS =         -37826.75
             --------                                   --------

 TOTAL STORAGE CHANGE =       -9776713.78         STORAGE CHANGE =         -37842.40
       --------------                             --------------
         LAND SURFACE =         112099.97           LAND SURFACE =          -4929.07
            SOIL ZONE =         149263.60              SOIL ZONE =         -12757.22
     UNSATURATED ZONE =        5913702.78       UNSATURATED ZONE =         -24696.77
       SATURATED ZONE =       -1.5952D+07         SATURATED ZONE =           4540.65

 OVERALL BUDGET ERROR =        -148542.39           BUDGET ERROR =             15.65


  PERCENT DISCREPANCY =             -0.03    PERCENT DISCREPANCY =              0.04



1
 SUMMARY VOLUMETRIC BUDGET FOR GSFLOW 
 DATE: 08 06 1996              CUMULATIVE TIME STEP:    5789
 MODFLOW STRESS PERIOD      2     CURRENT TIME STEP:    5789     ITERATIONS:      14

 -----------------------------------------------------------------------------------

   CUMULATIVE VOLUMES               L**3   RATES FOR THIS TIME STEP           L**3/T
   ------------------                      ------------------------

                                     IN                                         IN
                                     --                                         --
        PRECIPITATION =        4.6511D+08          PRECIPITATION =                  
           STREAMFLOW =                               STREAMFLOW =                  
     GW BOUNDARY FLOW =                         GW BOUNDARY FLOW =                  


                                    OUT                                        OUT
                                    ---                                        ---
   EVAPOTRANSPIRATION =        2.9721D+08     EVAPOTRANSPIRATION =          18743.71
           STREAMFLOW =        1.7428D+08             STREAMFLOW =           6312.58
     GW BOUNDARY FLOW =        3744426.78       GW BOUNDARY FLOW =            650.32

   INFLOWS - OUTFLOWS =       -1.0125D+07     INFLOWS - OUTFLOWS =         -25706.62
             --------                                   --------

 TOTAL STORAGE CHANGE =       -9976463.70         STORAGE CHANGE =         -25715.17
       --------------                             --------------
         LAND SURFACE =          85235.59           LAND SURFACE =          -3353.13
            SOIL ZONE =         116338.59              SOIL ZONE =          -2491.45
     UNSATURATED ZONE =        5744447.66       UNSATURATED ZONE =         -23766.98
       SATURATED ZONE =       -1.5922D+07         SATURATED ZONE =           3896.40

 OVERALL BUDGET ERROR =        -148448.24           BUDGET ERROR =              8.55


  PERCENT DISCREPANCY =             -0.03    PERCENT DISCREPANCY =              0.03



1
 SUMMARY VOLUMETRIC BUDGET FOR GSFLOW 
 DATE: 08 13 1996              CUMULATIVE TIME STEP:    5796
 MODFLOW STRESS PERIOD      2     CURRENT TIME STEP:    5796     ITERATIONS:      14

 -----------------------------------------------------------------------------------

   CUMULATIVE VOLUMES               L**3   RATES FOR THIS TIME STEP           L**3/T
   ------------------                      ------------------------

                                     IN                                         IN
                                     --                                         --
        PRECIPITATION =        4.6531D+08          PRECIPITATION =          54456.73
           STREAMFLOW =                               STREAMFLOW =                  
     GW BOUNDARY FLOW =                         GW BOUNDARY FLOW =                  


                                    OUT                                        OUT
                                    ---                                        ---
   EVAPOTRANSPIRATION =        2.9739D+08     EVAPOTRANSPIRATION =          36106.43
           STREAMFLOW =        1.7432D+08             STREAMFLOW =           7504.30
     GW BOUNDARY FLOW =        3748978.61       GW BOUNDARY FLOW =            650.28

   INFLOWS - OUTFLOWS =       -1.0154D+07     INFLOWS - OUTFLOWS =          10195.72
             --------                                   --------

 TOTAL STORAGE CHANGE =       -1.0006D+07         STORAGE CHANGE =          10180.69
       --------------                             --------------
         LAND SURFACE =          92673.80           LAND SURFACE =          -3493.45
            SOIL ZONE =         217439.67              SOIL ZONE =          33161.24
     UNSATURATED ZONE =        5582600.06       UNSATURATED ZONE =         -22918.55
       SATURATED ZONE =       -1.5898D+07         SATURATED ZONE =           3431.44

 OVERALL BUDGET ERROR =        -148343.82           BUDGET ERROR =             15.03


  PERCENT DISCREPANCY =             -0.03    PERCENT DISCREPANCY =              0.03



1
 SUMMARY VOLUMETRIC BUDGET FOR GSFLOW 
 DATE: 08 20 1996              CUMULATIVE TIME STEP:    5803
 MODFLOW STRESS PERIOD      2     CURRENT TIME STEP:    5803     ITERATIONS:      13

 -----------------------------------------------------------------------------------

   CUMULATIVE VOLUMES               L**3   RATES FOR THIS TIME STEP           L**3/T
   ------------------                      ------------------------

                                     IN                                         IN
                                     --                                         --
        PRECIPITATION =        4.6531D+08          PRECIPITATION =                  
           STREAMFLOW =                               STREAMFLOW =                  
     GW BOUNDARY FLOW =                         GW BOUNDARY FLOW =                  


                                    OUT                                        OUT
                                    ---                                        ---
   EVAPOTRANSPIRATION =        2.9760D+08     EVAPOTRANSPIRATION =          18248.54
           STREAMFLOW =        1.7437D+08             STREAMFLOW =           6120.60
     GW BOUNDARY FLOW =        3753528.98       GW BOUNDARY FLOW =            649.88

   INFLOWS - OUTFLOWS =       -1.0404D+07     INFLOWS - OUTFLOWS =         -25019.02
             --------                                   --------

 TOTAL STORAGE CHANGE =       -1.0256D+07         STORAGE CHANGE =         -25038.88
       --------------                             --------------
         LAND SURFACE =          40251.08           LAND SURFACE =          -2042.84
            SOIL ZONE =         156172.77              SOIL ZONE =          -3615.42
     UNSATURATED ZONE =        5422236.23       UNSATURATED ZONE =         -22550.07
       SATURATED ZONE =       -1.5874D+07         SATURATED ZONE =           3169.45

 OVERALL BUDGET ERROR =        -148219.92           BUDGET ERROR =             19.85


  PERCENT DISCREPANCY =             -0.03    PERCENT DISCREPANCY =              0.08



1
 SUMMARY VOLUMETRIC BUDGET FOR GSFLOW 
 DATE: 08 27 1996              CUMULATIVE TIME STEP:    5810
 MODFLOW STRESS PERIOD      2     CURRENT TIME STEP:    5810     ITERATIONS:      13

 -----------------------------------------------------------------------------------

   CUMULATIVE VOLUMES               L**3   RATES FOR THIS TIME STEP           L**3/T
   ------------------                      ------------------------

                                     IN                                         IN
                                     --                                         --
        PRECIPITATION =        4.6531D+08          PRECIPITATION =                  
           STREAMFLOW =                               STREAMFLOW =                  
     GW BOUNDARY FLOW =                         GW BOUNDARY FLOW =                  


                                    OUT                                        OUT
                                    ---                                        ---
   EVAPOTRANSPIRATION =        2.9773D+08     EVAPOTRANSPIRATION =          14558.32
           STREAMFLOW =        1.7441D+08             STREAMFLOW =           5969.18
     GW BOUNDARY FLOW =        3758076.63       GW BOUNDARY FLOW =            649.51

   INFLOWS - OUTFLOWS =       -1.0589D+07     INFLOWS - OUTFLOWS =         -21177.00
             --------                                   --------

 TOTAL STORAGE CHANGE =       -1.0441D+07         STORAGE CHANGE =         -21200.22
       --------------                             --------------
         LAND SURFACE =          26150.58           LAND SURFACE =          -1370.47
            SOIL ZONE =         119604.70              SOIL ZONE =           -679.26
     UNSATURATED ZONE =        5269140.50       UNSATURATED ZONE =         -21241.59
       SATURATED ZONE =       -1.5856D+07         SATURATED ZONE =           2091.10

 OVERALL BUDGET ERROR =        -148085.03           BUDGET ERROR =             23.22


  PERCENT DISCREPANCY =             -0.03    PERCENT DISCREPANCY =              0.11



1
 SUMMARY VOLUMETRIC BUDGET FOR GSFLOW 
 DATE: 09 03 1996              CUMULATIVE TIME STEP:    5817
 MODFLOW STRESS PERIOD      2     CURRENT TIME STEP:    5817     ITERATIONS:      13

 -----------------------------------------------------------------------------------

   CUMULATIVE VOLUMES               L**3   RATES FOR THIS TIME STEP           L**3/T
   ------------------                      ------------------------

                                     IN                                         IN
                                     --                                         --
        PRECIPITATION =        4.6531D+08          PRECIPITATION =                  
           STREAMFLOW =                               STREAMFLOW =                  
     GW BOUNDARY FLOW =                         GW BOUNDARY FLOW =                  


                                    OUT                                        OUT
                                    ---                                        ---
   EVAPOTRANSPIRATION =        2.9784D+08     EVAPOTRANSPIRATION =          13879.15
           STREAMFLOW =        1.7445D+08             STREAMFLOW =           5867.61
     GW BOUNDARY FLOW =        3762621.52       GW BOUNDARY FLOW =            649.11

   INFLOWS - OUTFLOWS =       -1.0743D+07     INFLOWS - OUTFLOWS =         -20395.86
             --------                                   --------

 TOTAL STORAGE CHANGE =       -1.0595D+07         STORAGE CHANGE =         -20407.91
       --------------                             --------------
         LAND SURFACE =          17057.94           LAND SURFACE =          -1080.58
            SOIL ZONE =         107377.79              SOIL ZONE =           -406.64
     UNSATURATED ZONE =        5126059.00       UNSATURATED ZONE =         -19909.36
       SATURATED ZONE =       -1.5846D+07         SATURATED ZONE =            988.67

 OVERALL BUDGET ERROR =        -147999.57           BUDGET ERROR =             12.05


  PERCENT DISCREPANCY =             -0.03    PERCENT DISCREPANCY =              0.06



1
 SUMMARY VOLUMETRIC BUDGET FOR GSFLOW 
 DATE: 09 10 1996              CUMULATIVE TIME STEP:    5824
 MODFLOW STRESS PERIOD      2     CURRENT TIME STEP:    5824     ITERATIONS:      13

 -----------------------------------------------------------------------------------

   CUMULATIVE VOLUMES               L**3   RATES FOR THIS TIME STEP           L**3/T
   ------------------                      ------------------------

                                     IN                                         IN
                                     --                                         --
        PRECIPITATION =        4.6531D+08          PRECIPITATION =                  
           STREAMFLOW =                               STREAMFLOW =                  
     GW BOUNDARY FLOW =                         GW BOUNDARY FLOW =                  


                                    OUT                                        OUT
                                    ---                                        ---
   EVAPOTRANSPIRATION =        2.9793D+08     EVAPOTRANSPIRATION =          12842.41
           STREAMFLOW =        1.7449D+08             STREAMFLOW =           5776.10
     GW BOUNDARY FLOW =        3767163.64       GW BOUNDARY FLOW =            648.71

   INFLOWS - OUTFLOWS =       -1.0872D+07     INFLOWS - OUTFLOWS =         -19267.21
             --------                                   --------

 TOTAL STORAGE CHANGE =       -1.0724D+07         STORAGE CHANGE =         -19275.69
       --------------                             --------------
         LAND SURFACE =          10644.28           LAND SURFACE =           -976.08
            SOIL ZONE =         117059.89              SOIL ZONE =            409.99
     UNSATURATED ZONE =        4987083.49       UNSATURATED ZONE =         -19695.56
       SATURATED ZONE =       -1.5839D+07         SATURATED ZONE =            985.96

 OVERALL BUDGET ERROR =        -147932.24           BUDGET ERROR =              8.48


  PERCENT DISCREPANCY =             -0.03    PERCENT DISCREPANCY =              0.04



1
 SUMMARY VOLUMETRIC BUDGET FOR GSFLOW 
 DATE: 09 17 1996              CUMULATIVE TIME STEP:    5831
 MODFLOW STRESS PERIOD      2     CURRENT TIME STEP:    5831     ITERATIONS:      13

 -----------------------------------------------------------------------------------

   CUMULATIVE VOLUMES               L**3   RATES FOR THIS TIME STEP           L**3/T
   ------------------                      ------------------------

                                     IN                                         IN
                                     --                                         --
        PRECIPITATION =        4.6637D+08          PRECIPITATION =                  
           STREAMFLOW =                               STREAMFLOW =                  
     GW BOUNDARY FLOW =                         GW BOUNDARY FLOW =                  


                                    OUT                                        OUT
                                    ---                                        ---
   EVAPOTRANSPIRATION =        2.9813D+08     EVAPOTRANSPIRATION =          74571.48
           STREAMFLOW =        1.7456D+08             STREAMFLOW =           9761.74
     GW BOUNDARY FLOW =        3771705.09       GW BOUNDARY FLOW =            649.10

   INFLOWS - OUTFLOWS =       -1.0092D+07     INFLOWS - OUTFLOWS =         -84982.32
             --------                                   --------

 TOTAL STORAGE CHANGE =       -9944204.13         STORAGE CHANGE =         -85002.80
       --------------                             --------------
         LAND SURFACE =           6180.91           LAND SURFACE =         -34896.28
            SOIL ZONE =        1029173.69              SOIL ZONE =         -31573.28
     UNSATURATED ZONE =        4852086.71       UNSATURATED ZONE =         -19078.67
       SATURATED ZONE =       -1.5832D+07         SATURATED ZONE =            545.43

 OVERALL BUDGET ERROR =        -147781.29           BUDGET ERROR =             20.48


  PERCENT DISCREPANCY =             -0.03    PERCENT DISCREPANCY =              0.02



1
 SUMMARY VOLUMETRIC BUDGET FOR GSFLOW 
 DATE: 09 24 1996              CUMULATIVE TIME STEP:    5838
 MODFLOW STRESS PERIOD      2     CURRENT TIME STEP:    5838     ITERATIONS:      12

 -----------------------------------------------------------------------------------

   CUMULATIVE VOLUMES               L**3   RATES FOR THIS TIME STEP           L**3/T
   ------------------                      ------------------------

                                     IN                                         IN
                                     --                                         --
        PRECIPITATION =        4.6637D+08          PRECIPITATION =                  
           STREAMFLOW =                               STREAMFLOW =                  
     GW BOUNDARY FLOW =                         GW BOUNDARY FLOW =                  


                                    OUT                                        OUT
                                    ---                                        ---
   EVAPOTRANSPIRATION =        2.9864D+08     EVAPOTRANSPIRATION =          50326.07
           STREAMFLOW =        1.7461D+08             STREAMFLOW =           6096.26
     GW BOUNDARY FLOW =        3776244.78       GW BOUNDARY FLOW =            648.19

   INFLOWS - OUTFLOWS =       -1.0651D+07     INFLOWS - OUTFLOWS =         -57070.52
             --------                                   --------

 TOTAL STORAGE CHANGE =       -1.0503D+07         STORAGE CHANGE =         -57095.38
       --------------                             --------------
         LAND SURFACE =           2675.39           LAND SURFACE =           -481.80
            SOIL ZONE =         603009.91              SOIL ZONE =         -38251.77
     UNSATURATED ZONE =        4720804.48       UNSATURATED ZONE =         -18549.69
       SATURATED ZONE =       -1.5830D+07         SATURATED ZONE =            187.88

 OVERALL BUDGET ERROR =        -147613.19           BUDGET ERROR =             24.86


  PERCENT DISCREPANCY =             -0.03    PERCENT DISCREPANCY =              0.04



