1
 SUMMARY VOLUMETRIC BUDGET FOR GSFLOW 
 DATE: 10 07 1980              CUMULATIVE TIME STEP:       7
 MODFLOW STRESS PERIOD      2     CURRENT TIME STEP:       7     ITERATIONS:       6

 -----------------------------------------------------------------------------------

   CUMULATIVE VOLUMES               L**3   RATES FOR THIS TIME STEP           L**3/T
   ------------------                      ------------------------

                                     IN                                         IN
                                     --                                         --
        PRECIPITATION =                            PRECIPITATION =                  
           STREAMFLOW =                               STREAMFLOW =                  
     GW BOUNDARY FLOW =                         GW BOUNDARY FLOW =                  


                                    OUT                                        OUT
                                    ---                                        ---
   EVAPOTRANSPIRATION =          63502.38     EVAPOTRANSPIRATION =           9679.51
           STREAMFLOW =          42957.63             STREAMFLOW =           6065.77
     GW BOUNDARY FLOW =           4541.44       GW BOUNDARY FLOW =            648.70

   INFLOWS - OUTFLOWS =        -111001.44     INFLOWS - OUTFLOWS =         -16393.99
             --------                                   --------

 TOTAL STORAGE CHANGE =        -110545.66         STORAGE CHANGE =         -16325.67
       --------------                             --------------
         LAND SURFACE =                             LAND SURFACE =                  
            SOIL ZONE =          47014.67              SOIL ZONE =           6016.91
     UNSATURATED ZONE =        -144777.37       UNSATURATED ZONE =         -20360.11
       SATURATED ZONE =         -12782.96         SATURATED ZONE =          -1982.46

 OVERALL BUDGET ERROR =           -455.78           BUDGET ERROR =            -68.32


  PERCENT DISCREPANCY =             -0.41    PERCENT DISCREPANCY =             -0.42



1
 SUMMARY VOLUMETRIC BUDGET FOR GSFLOW 
 DATE: 10 14 1980              CUMULATIVE TIME STEP:      14
 MODFLOW STRESS PERIOD      2     CURRENT TIME STEP:      14     ITERATIONS:       6

 -----------------------------------------------------------------------------------

   CUMULATIVE VOLUMES               L**3   RATES FOR THIS TIME STEP           L**3/T
   ------------------                      ------------------------

                                     IN                                         IN
                                     --                                         --
        PRECIPITATION =         650780.39          PRECIPITATION =         164754.68
           STREAMFLOW =                               STREAMFLOW =                  
     GW BOUNDARY FLOW =                         GW BOUNDARY FLOW =                  


                                    OUT                                        OUT
                                    ---                                        ---
   EVAPOTRANSPIRATION =         147519.26     EVAPOTRANSPIRATION =           7886.70
           STREAMFLOW =          92677.76             STREAMFLOW =           7494.72
     GW BOUNDARY FLOW =           9082.78       GW BOUNDARY FLOW =            648.89

   INFLOWS - OUTFLOWS =         401500.59     INFLOWS - OUTFLOWS =         148724.37
             --------                                   --------

 TOTAL STORAGE CHANGE =         402471.13         STORAGE CHANGE =         148798.38
       --------------                             --------------
         LAND SURFACE =         277680.20           LAND SURFACE =         136619.69
            SOIL ZONE =         436917.79              SOIL ZONE =          34196.54
     UNSATURATED ZONE =        -284452.37       UNSATURATED ZONE =         -19623.49
       SATURATED ZONE =         -27674.48         SATURATED ZONE =          -2394.36

 OVERALL BUDGET ERROR =           -970.54           BUDGET ERROR =            -74.02


  PERCENT DISCREPANCY =             -0.15    PERCENT DISCREPANCY =             -0.04



1
 SUMMARY VOLUMETRIC BUDGET FOR GSFLOW 
 DATE: 10 21 1980              CUMULATIVE TIME STEP:      21
 MODFLOW STRESS PERIOD      2     CURRENT TIME STEP:      21     ITERATIONS:       6

 -----------------------------------------------------------------------------------

   CUMULATIVE VOLUMES               L**3   RATES FOR THIS TIME STEP           L**3/T
   ------------------                      ------------------------

                                     IN                                         IN
                                     --                                         --
        PRECIPITATION =         733156.23          PRECIPITATION =                  
           STREAMFLOW =                               STREAMFLOW =                  
     GW BOUNDARY FLOW =                         GW BOUNDARY FLOW =                  


                                    OUT                                        OUT
                                    ---                                        ---
   EVAPOTRANSPIRATION =         373107.52     EVAPOTRANSPIRATION =          36446.04
           STREAMFLOW =         144892.17             STREAMFLOW =           7106.34
     GW BOUNDARY FLOW =          13624.56       GW BOUNDARY FLOW =            648.77

   INFLOWS - OUTFLOWS =         201531.97     INFLOWS - OUTFLOWS =         -44201.15
             --------                                   --------

 TOTAL STORAGE CHANGE =         203014.85         STORAGE CHANGE =         -44120.14
       --------------                             --------------
         LAND SURFACE =           2252.39           LAND SURFACE =          -3155.26
            SOIL ZONE =         665729.22              SOIL ZONE =         -19173.04
     UNSATURATED ZONE =        -418622.24       UNSATURATED ZONE =         -18801.03
       SATURATED ZONE =         -46344.52         SATURATED ZONE =          -2990.81

 OVERALL BUDGET ERROR =          -1482.87           BUDGET ERROR =            -81.01


  PERCENT DISCREPANCY =             -0.20    PERCENT DISCREPANCY =             -0.18



1
 SUMMARY VOLUMETRIC BUDGET FOR GSFLOW 
 DATE: 10 28 1980              CUMULATIVE TIME STEP:      28
 MODFLOW STRESS PERIOD      2     CURRENT TIME STEP:      28     ITERATIONS:       6

 -----------------------------------------------------------------------------------

   CUMULATIVE VOLUMES               L**3   RATES FOR THIS TIME STEP           L**3/T
   ------------------                      ------------------------

                                     IN                                         IN
                                     --                                         --
        PRECIPITATION =        1070899.96          PRECIPITATION =                  
           STREAMFLOW =                               STREAMFLOW =                  
     GW BOUNDARY FLOW =                         GW BOUNDARY FLOW =                  


                                    OUT                                        OUT
                                    ---                                        ---
   EVAPOTRANSPIRATION =         550295.55     EVAPOTRANSPIRATION =          23594.69
           STREAMFLOW =         199838.19             STREAMFLOW =           7989.70
     GW BOUNDARY FLOW =          18165.91       GW BOUNDARY FLOW =            648.81

   INFLOWS - OUTFLOWS =         302600.31     INFLOWS - OUTFLOWS =         -32233.20
             --------                                   --------

 TOTAL STORAGE CHANGE =         304656.59         STORAGE CHANGE =         -32146.14
       --------------                             --------------
         LAND SURFACE =          24622.16           LAND SURFACE =         -30947.62
            SOIL ZONE =         896176.76              SOIL ZONE =          20269.32
     UNSATURATED ZONE =        -547225.36       UNSATURATED ZONE =         -17994.14
       SATURATED ZONE =         -68916.98         SATURATED ZONE =          -3473.70

 OVERALL BUDGET ERROR =          -2056.28           BUDGET ERROR =            -87.05


  PERCENT DISCREPANCY =             -0.19    PERCENT DISCREPANCY =             -0.27



1
 SUMMARY VOLUMETRIC BUDGET FOR GSFLOW 
 DATE: 11 04 1980              CUMULATIVE TIME STEP:      35
 MODFLOW STRESS PERIOD      2     CURRENT TIME STEP:      35     ITERATIONS:       6

 -----------------------------------------------------------------------------------

   CUMULATIVE VOLUMES               L**3   RATES FOR THIS TIME STEP           L**3/T
   ------------------                      ------------------------

                                     IN                                         IN
                                     --                                         --
        PRECIPITATION =        1070899.96          PRECIPITATION =                  
           STREAMFLOW =                               STREAMFLOW =                  
     GW BOUNDARY FLOW =                         GW BOUNDARY FLOW =                  


                                    OUT                                        OUT
                                    ---                                        ---
   EVAPOTRANSPIRATION =         825644.62     EVAPOTRANSPIRATION =          34462.05
           STREAMFLOW =         252310.41             STREAMFLOW =           7019.12
     GW BOUNDARY FLOW =          22706.92       GW BOUNDARY FLOW =            648.64

   INFLOWS - OUTFLOWS =         -29761.99     INFLOWS - OUTFLOWS =         -42129.81
             --------                                   --------

 TOTAL STORAGE CHANGE =         -27083.18         STORAGE CHANGE =         -42037.50
       --------------                             --------------
         LAND SURFACE =                             LAND SURFACE =                  
            SOIL ZONE =         739546.94              SOIL ZONE =         -20540.70
     UNSATURATED ZONE =        -670721.45       UNSATURATED ZONE =         -17376.07
       SATURATED ZONE =         -95908.66         SATURATED ZONE =          -4120.73

 OVERALL BUDGET ERROR =          -2678.81           BUDGET ERROR =            -92.31


  PERCENT DISCREPANCY =             -0.24    PERCENT DISCREPANCY =             -0.22



1
 SUMMARY VOLUMETRIC BUDGET FOR GSFLOW 
 DATE: 11 11 1980              CUMULATIVE TIME STEP:      42
 MODFLOW STRESS PERIOD      2     CURRENT TIME STEP:      42     ITERATIONS:       7

 -----------------------------------------------------------------------------------

   CUMULATIVE VOLUMES               L**3   RATES FOR THIS TIME STEP           L**3/T
   ------------------                      ------------------------

                                     IN                                         IN
                                     --                                         --
        PRECIPITATION =        1573759.34          PRECIPITATION =         255182.10
           STREAMFLOW =                               STREAMFLOW =                  
     GW BOUNDARY FLOW =                         GW BOUNDARY FLOW =                  


                                    OUT                                        OUT
                                    ---                                        ---
   EVAPOTRANSPIRATION =        1024608.59     EVAPOTRANSPIRATION =          14644.17
           STREAMFLOW =         308289.37             STREAMFLOW =          10774.45
     GW BOUNDARY FLOW =          27247.65       GW BOUNDARY FLOW =            648.84

   INFLOWS - OUTFLOWS =         213613.72     INFLOWS - OUTFLOWS =         229114.64
             --------                                   --------

 TOTAL STORAGE CHANGE =         216895.26         STORAGE CHANGE =         229184.00
       --------------                             --------------
         LAND SURFACE =          78611.70           LAND SURFACE =          76658.21
            SOIL ZONE =        1053412.00              SOIL ZONE =         173145.80
     UNSATURATED ZONE =        -789347.60       UNSATURATED ZONE =         -16533.93
       SATURATED ZONE =        -125780.84         SATURATED ZONE =          -4086.08

 OVERALL BUDGET ERROR =          -3281.53           BUDGET ERROR =            -69.36


  PERCENT DISCREPANCY =             -0.21    PERCENT DISCREPANCY =             -0.03



1
 SUMMARY VOLUMETRIC BUDGET FOR GSFLOW 
 DATE: 11 18 1980              CUMULATIVE TIME STEP:      49
 MODFLOW STRESS PERIOD      2     CURRENT TIME STEP:      49     ITERATIONS:       6

 -----------------------------------------------------------------------------------

   CUMULATIVE VOLUMES               L**3   RATES FOR THIS TIME STEP           L**3/T
   ------------------                      ------------------------

                                     IN                                         IN
                                     --                                         --
        PRECIPITATION =        1573759.34          PRECIPITATION =                  
           STREAMFLOW =                               STREAMFLOW =                  
     GW BOUNDARY FLOW =                         GW BOUNDARY FLOW =                  


                                    OUT                                        OUT
                                    ---                                        ---
   EVAPOTRANSPIRATION =        1113099.99     EVAPOTRANSPIRATION =          16687.24
           STREAMFLOW =         371237.09             STREAMFLOW =           9365.52
     GW BOUNDARY FLOW =          31789.54       GW BOUNDARY FLOW =            648.86

   INFLOWS - OUTFLOWS =          57632.72     INFLOWS - OUTFLOWS =         -26701.62
             --------                                   --------

 TOTAL STORAGE CHANGE =          61585.40         STORAGE CHANGE =         -26599.25
       --------------                             --------------
         LAND SURFACE =           8650.47           LAND SURFACE =          -6201.94
            SOIL ZONE =        1114569.75              SOIL ZONE =            417.69
     UNSATURATED ZONE =        -903276.53       UNSATURATED ZONE =         -16028.59
       SATURATED ZONE =        -158358.29         SATURATED ZONE =          -4786.40

 OVERALL BUDGET ERROR =          -3952.68           BUDGET ERROR =           -102.38


  PERCENT DISCREPANCY =             -0.25    PERCENT DISCREPANCY =             -0.38



1
 SUMMARY VOLUMETRIC BUDGET FOR GSFLOW 
 DATE: 11 25 1980              CUMULATIVE TIME STEP:      56
 MODFLOW STRESS PERIOD      2     CURRENT TIME STEP:      56     ITERATIONS:       7

 -----------------------------------------------------------------------------------

   CUMULATIVE VOLUMES               L**3   RATES FOR THIS TIME STEP           L**3/T
   ------------------                      ------------------------

                                     IN                                         IN
                                     --                                         --
        PRECIPITATION =        1648813.76          PRECIPITATION =                  
           STREAMFLOW =                               STREAMFLOW =                  
     GW BOUNDARY FLOW =                         GW BOUNDARY FLOW =                  


                                    OUT                                        OUT
                                    ---                                        ---
   EVAPOTRANSPIRATION =        1185742.75     EVAPOTRANSPIRATION =           8792.39
           STREAMFLOW =         438545.60             STREAMFLOW =           9976.91
     GW BOUNDARY FLOW =          36331.84       GW BOUNDARY FLOW =            648.94

   INFLOWS - OUTFLOWS =         -11806.43     INFLOWS - OUTFLOWS =         -19418.24
             --------                                   --------

 TOTAL STORAGE CHANGE =          -7195.79         STORAGE CHANGE =         -19340.78
       --------------                             --------------
         LAND SURFACE =          55166.56           LAND SURFACE =          -8744.72
            SOIL ZONE =        1144810.80              SOIL ZONE =          10127.84
     UNSATURATED ZONE =       -1012967.30       UNSATURATED ZONE =         -15412.68
       SATURATED ZONE =        -194205.85         SATURATED ZONE =          -5311.22

 OVERALL BUDGET ERROR =          -4610.65           BUDGET ERROR =            -77.46


  PERCENT DISCREPANCY =             -0.28    PERCENT DISCREPANCY =             -0.40



1
 SUMMARY VOLUMETRIC BUDGET FOR GSFLOW 
 DATE: 12 02 1980              CUMULATIVE TIME STEP:      63
 MODFLOW STRESS PERIOD      2     CURRENT TIME STEP:      63     ITERATIONS:       7

 -----------------------------------------------------------------------------------

   CUMULATIVE VOLUMES               L**3   RATES FOR THIS TIME STEP           L**3/T
   ------------------                      ------------------------

                                     IN                                         IN
                                     --                                         --
        PRECIPITATION =        2076620.74          PRECIPITATION =                  
           STREAMFLOW =                               STREAMFLOW =                  
     GW BOUNDARY FLOW =                         GW BOUNDARY FLOW =                  


                                    OUT                                        OUT
                                    ---                                        ---
   EVAPOTRANSPIRATION =        1375203.58     EVAPOTRANSPIRATION =          33951.63
           STREAMFLOW =         523942.51             STREAMFLOW =          15368.43
     GW BOUNDARY FLOW =          40875.83       GW BOUNDARY FLOW =            649.45

   INFLOWS - OUTFLOWS =         136598.82     INFLOWS - OUTFLOWS =         -49969.51
             --------                                   --------

 TOTAL STORAGE CHANGE =         141707.15         STORAGE CHANGE =         -49896.79
       --------------                             --------------
         LAND SURFACE =         152558.40           LAND SURFACE =         -75202.38
            SOIL ZONE =        1333573.06              SOIL ZONE =          42838.54
     UNSATURATED ZONE =       -1114411.18       UNSATURATED ZONE =         -12961.60
       SATURATED ZONE =        -230013.13         SATURATED ZONE =          -4571.35

 OVERALL BUDGET ERROR =          -5108.34           BUDGET ERROR =            -72.73


  PERCENT DISCREPANCY =             -0.25    PERCENT DISCREPANCY =             -0.15



1
 SUMMARY VOLUMETRIC BUDGET FOR GSFLOW 
 DATE: 12 09 1980              CUMULATIVE TIME STEP:      70
 MODFLOW STRESS PERIOD      2     CURRENT TIME STEP:      70     ITERATIONS:       7

 -----------------------------------------------------------------------------------

   CUMULATIVE VOLUMES               L**3   RATES FOR THIS TIME STEP           L**3/T
   ------------------                      ------------------------

                                     IN                                         IN
                                     --                                         --
        PRECIPITATION =        4284363.13          PRECIPITATION =                  
           STREAMFLOW =                               STREAMFLOW =                  
     GW BOUNDARY FLOW =                         GW BOUNDARY FLOW =                  


                                    OUT                                        OUT
                                    ---                                        ---
   EVAPOTRANSPIRATION =        1398622.22     EVAPOTRANSPIRATION =           2942.37
           STREAMFLOW =         624596.24             STREAMFLOW =          14710.60
     GW BOUNDARY FLOW =          45422.84       GW BOUNDARY FLOW =            649.67

   INFLOWS - OUTFLOWS =        2215721.82     INFLOWS - OUTFLOWS =         -18302.64
             --------                                   --------

 TOTAL STORAGE CHANGE =        2221410.90         STORAGE CHANGE =         -18233.94
       --------------                             --------------
         LAND SURFACE =        2335225.13           LAND SURFACE =          -2942.37
            SOIL ZONE =        1367927.98              SOIL ZONE =           4917.42
     UNSATURATED ZONE =       -1212757.05       UNSATURATED ZONE =         -14234.52
       SATURATED ZONE =        -268985.16         SATURATED ZONE =          -5974.47

 OVERALL BUDGET ERROR =          -5689.07           BUDGET ERROR =            -68.69


  PERCENT DISCREPANCY =             -0.13    PERCENT DISCREPANCY =             -0.38



1
 SUMMARY VOLUMETRIC BUDGET FOR GSFLOW 
 DATE: 12 16 1980              CUMULATIVE TIME STEP:      77
 MODFLOW STRESS PERIOD      2     CURRENT TIME STEP:      77     ITERATIONS:       7

 -----------------------------------------------------------------------------------

   CUMULATIVE VOLUMES               L**3   RATES FOR THIS TIME STEP           L**3/T
   ------------------                      ------------------------

                                     IN                                         IN
                                     --                                         --
        PRECIPITATION =        4284363.13          PRECIPITATION =                  
           STREAMFLOW =                               STREAMFLOW =                  
     GW BOUNDARY FLOW =                         GW BOUNDARY FLOW =                  


                                    OUT                                        OUT
                                    ---                                        ---
   EVAPOTRANSPIRATION =        1540616.38     EVAPOTRANSPIRATION =          33883.45
           STREAMFLOW =         746458.19             STREAMFLOW =          25217.66
     GW BOUNDARY FLOW =          49971.64       GW BOUNDARY FLOW =            650.27

   INFLOWS - OUTFLOWS =        1947316.92     INFLOWS - OUTFLOWS =         -59751.38
             --------                                   --------

 TOTAL STORAGE CHANGE =        1953499.75         STORAGE CHANGE =         -59680.95
       --------------                             --------------
         LAND SURFACE =        2023963.99           LAND SURFACE =        -129017.63
            SOIL ZONE =        1541253.78              SOIL ZONE =          82702.65
     UNSATURATED ZONE =       -1302521.39       UNSATURATED ZONE =          -8985.06
       SATURATED ZONE =        -309196.63         SATURATED ZONE =          -4380.92

 OVERALL BUDGET ERROR =          -6182.84           BUDGET ERROR =            -70.43


  PERCENT DISCREPANCY =             -0.14    PERCENT DISCREPANCY =             -0.12



1
 SUMMARY VOLUMETRIC BUDGET FOR GSFLOW 
 DATE: 12 23 1980              CUMULATIVE TIME STEP:      84
 MODFLOW STRESS PERIOD      2     CURRENT TIME STEP:      84     ITERATIONS:       9

 -----------------------------------------------------------------------------------

   CUMULATIVE VOLUMES               L**3   RATES FOR THIS TIME STEP           L**3/T
   ------------------                      ------------------------

                                     IN                                         IN
                                     --                                         --
        PRECIPITATION =        4516755.31          PRECIPITATION =                  
           STREAMFLOW =                               STREAMFLOW =                  
     GW BOUNDARY FLOW =                         GW BOUNDARY FLOW =                  


                                    OUT                                        OUT
                                    ---                                        ---
   EVAPOTRANSPIRATION =        1746657.83     EVAPOTRANSPIRATION =          35140.80
           STREAMFLOW =         975505.60             STREAMFLOW =          30480.10
     GW BOUNDARY FLOW =          54532.18       GW BOUNDARY FLOW =            651.94

   INFLOWS - OUTFLOWS =        1740059.70     INFLOWS - OUTFLOWS =         -66272.84
             --------                                   --------

 TOTAL STORAGE CHANGE =        1746570.70         STORAGE CHANGE =         -66232.46
       --------------                             --------------
         LAND SURFACE =        1433308.52           LAND SURFACE =         -48192.94
            SOIL ZONE =        1993536.96              SOIL ZONE =          -8130.86
     UNSATURATED ZONE =       -1342938.80       UNSATURATED ZONE =          -5274.08
       SATURATED ZONE =        -337335.97         SATURATED ZONE =          -4634.59

 OVERALL BUDGET ERROR =          -6511.00           BUDGET ERROR =            -40.38


  PERCENT DISCREPANCY =             -0.14    PERCENT DISCREPANCY =             -0.06



1
 SUMMARY VOLUMETRIC BUDGET FOR GSFLOW 
 DATE: 12 30 1980              CUMULATIVE TIME STEP:      91
 MODFLOW STRESS PERIOD      2     CURRENT TIME STEP:      91     ITERATIONS:      11

 -----------------------------------------------------------------------------------

   CUMULATIVE VOLUMES               L**3   RATES FOR THIS TIME STEP           L**3/T
   ------------------                      ------------------------

                                     IN                                         IN
                                     --                                         --
        PRECIPITATION =        4516755.31          PRECIPITATION =                  
           STREAMFLOW =                               STREAMFLOW =                  
     GW BOUNDARY FLOW =                         GW BOUNDARY FLOW =                  


                                    OUT                                        OUT
                                    ---                                        ---
   EVAPOTRANSPIRATION =        2107284.19     EVAPOTRANSPIRATION =          45887.39
           STREAMFLOW =        1224149.18             STREAMFLOW =          27637.78
     GW BOUNDARY FLOW =          59099.17       GW BOUNDARY FLOW =            652.41

   INFLOWS - OUTFLOWS =        1126222.78     INFLOWS - OUTFLOWS =         -74177.58
             --------                                   --------

 TOTAL STORAGE CHANGE =        1132912.53         STORAGE CHANGE =         -74157.64
       --------------                             --------------
         LAND SURFACE =         641176.37           LAND SURFACE =         -40371.69
            SOIL ZONE =        2204249.07              SOIL ZONE =         -24669.49
     UNSATURATED ZONE =       -1350484.55       UNSATURATED ZONE =          -4991.17
       SATURATED ZONE =        -362028.36         SATURATED ZONE =          -4125.28

 OVERALL BUDGET ERROR =          -6689.75           BUDGET ERROR =            -19.94


  PERCENT DISCREPANCY =             -0.15    PERCENT DISCREPANCY =             -0.03



1
 SUMMARY VOLUMETRIC BUDGET FOR GSFLOW 
 DATE: 01 06 1981              CUMULATIVE TIME STEP:      98
 MODFLOW STRESS PERIOD      2     CURRENT TIME STEP:      98     ITERATIONS:       8

 -----------------------------------------------------------------------------------

   CUMULATIVE VOLUMES               L**3   RATES FOR THIS TIME STEP           L**3/T
   ------------------                      ------------------------

                                     IN                                         IN
                                     --                                         --
        PRECIPITATION =        5004445.82          PRECIPITATION =                  
           STREAMFLOW =                               STREAMFLOW =                  
     GW BOUNDARY FLOW =                         GW BOUNDARY FLOW =                  


                                    OUT                                        OUT
                                    ---                                        ---
   EVAPOTRANSPIRATION =        2335206.33     EVAPOTRANSPIRATION =          21388.47
           STREAMFLOW =        1379764.24             STREAMFLOW =          21365.97
     GW BOUNDARY FLOW =          63660.95       GW BOUNDARY FLOW =            651.28

   INFLOWS - OUTFLOWS =        1225814.30     INFLOWS - OUTFLOWS =         -43405.72
             --------                                   --------

 TOTAL STORAGE CHANGE =        1232708.12         STORAGE CHANGE =         -43370.71
       --------------                             --------------
         LAND SURFACE =         837061.68           LAND SURFACE =         -30417.13
            SOIL ZONE =        2210281.28              SOIL ZONE =           2613.17
     UNSATURATED ZONE =       -1415379.78       UNSATURATED ZONE =          -9920.72
       SATURATED ZONE =        -399255.06         SATURATED ZONE =          -5646.02

 OVERALL BUDGET ERROR =          -6893.82           BUDGET ERROR =            -35.00


  PERCENT DISCREPANCY =             -0.14    PERCENT DISCREPANCY =             -0.08



1
 SUMMARY VOLUMETRIC BUDGET FOR GSFLOW 
 DATE: 01 13 1981              CUMULATIVE TIME STEP:     105
 MODFLOW STRESS PERIOD      2     CURRENT TIME STEP:     105     ITERATIONS:       7

 -----------------------------------------------------------------------------------

   CUMULATIVE VOLUMES               L**3   RATES FOR THIS TIME STEP           L**3/T
   ------------------                      ------------------------

                                     IN                                         IN
                                     --                                         --
        PRECIPITATION =        5004445.82          PRECIPITATION =                  
           STREAMFLOW =                               STREAMFLOW =                  
     GW BOUNDARY FLOW =                         GW BOUNDARY FLOW =                  


                                    OUT                                        OUT
                                    ---                                        ---
   EVAPOTRANSPIRATION =        2552718.60     EVAPOTRANSPIRATION =          44453.51
           STREAMFLOW =        1528709.96             STREAMFLOW =          20150.07
     GW BOUNDARY FLOW =          68218.25       GW BOUNDARY FLOW =            650.86

   INFLOWS - OUTFLOWS =         854799.00     INFLOWS - OUTFLOWS =         -65254.44
             --------                                   --------

 TOTAL STORAGE CHANGE =         862067.10         STORAGE CHANGE =         -65188.36
       --------------                             --------------
         LAND SURFACE =         626703.68           LAND SURFACE =         -38989.03
            SOIL ZONE =        2156540.09              SOIL ZONE =         -10597.87
     UNSATURATED ZONE =       -1479184.93       UNSATURATED ZONE =          -9120.09
       SATURATED ZONE =        -441991.74         SATURATED ZONE =          -6481.36

 OVERALL BUDGET ERROR =          -7268.09           BUDGET ERROR =            -66.08


  PERCENT DISCREPANCY =             -0.15    PERCENT DISCREPANCY =             -0.10



1
 SUMMARY VOLUMETRIC BUDGET FOR GSFLOW 
 DATE: 01 20 1981              CUMULATIVE TIME STEP:     112
 MODFLOW STRESS PERIOD      2     CURRENT TIME STEP:     112     ITERATIONS:       7

 -----------------------------------------------------------------------------------

   CUMULATIVE VOLUMES               L**3   RATES FOR THIS TIME STEP           L**3/T
   ------------------                      ------------------------

                                     IN                                         IN
                                     --                                         --
        PRECIPITATION =        5170468.48          PRECIPITATION =          41503.16
           STREAMFLOW =                               STREAMFLOW =                  
     GW BOUNDARY FLOW =                         GW BOUNDARY FLOW =                  


                                    OUT                                        OUT
                                    ---                                        ---
   EVAPOTRANSPIRATION =        2833964.10     EVAPOTRANSPIRATION =          34835.39
           STREAMFLOW =        1671293.94             STREAMFLOW =          20266.85
     GW BOUNDARY FLOW =          72773.20       GW BOUNDARY FLOW =            650.67

   INFLOWS - OUTFLOWS =         592437.24     INFLOWS - OUTFLOWS =         -14249.75
             --------                                   --------

 TOTAL STORAGE CHANGE =         600090.93         STORAGE CHANGE =         -14188.54
       --------------                             --------------
         LAND SURFACE =         436309.37           LAND SURFACE =           4324.83
            SOIL ZONE =        2159465.22              SOIL ZONE =         -10245.45
     UNSATURATED ZONE =       -1509840.82       UNSATURATED ZONE =          -1781.14
       SATURATED ZONE =        -485842.84         SATURATED ZONE =          -6486.78

 OVERALL BUDGET ERROR =          -7653.69           BUDGET ERROR =            -61.20


  PERCENT DISCREPANCY =             -0.15    PERCENT DISCREPANCY =             -0.11



1
 SUMMARY VOLUMETRIC BUDGET FOR GSFLOW 
 DATE: 01 27 1981              CUMULATIVE TIME STEP:     119
 MODFLOW STRESS PERIOD      2     CURRENT TIME STEP:     119     ITERATIONS:       9

 -----------------------------------------------------------------------------------

   CUMULATIVE VOLUMES               L**3   RATES FOR THIS TIME STEP           L**3/T
   ------------------                      ------------------------

                                     IN                                         IN
                                     --                                         --
        PRECIPITATION =        8646542.90          PRECIPITATION =        2936504.96
           STREAMFLOW =                               STREAMFLOW =                  
     GW BOUNDARY FLOW =                         GW BOUNDARY FLOW =                  


                                    OUT                                        OUT
                                    ---                                        ---
   EVAPOTRANSPIRATION =        3067730.05     EVAPOTRANSPIRATION =          13121.10
           STREAMFLOW =        1817696.26             STREAMFLOW =          18747.94
     GW BOUNDARY FLOW =          77327.70       GW BOUNDARY FLOW =            650.46

   INFLOWS - OUTFLOWS =        3683788.90     INFLOWS - OUTFLOWS =        2903985.47
             --------                                   --------

 TOTAL STORAGE CHANGE =        3691630.54         STORAGE CHANGE =        2904010.55
       --------------                             --------------
         LAND SURFACE =        3540208.69           LAND SURFACE =        2923350.57
            SOIL ZONE =        2180494.38              SOIL ZONE =          -7831.11
     UNSATURATED ZONE =       -1498683.09       UNSATURATED ZONE =          -4757.19
       SATURATED ZONE =        -530389.44         SATURATED ZONE =          -6751.72

 OVERALL BUDGET ERROR =          -7841.65           BUDGET ERROR =            -25.08


  PERCENT DISCREPANCY =             -0.09    PERCENT DISCREPANCY =             -0.00



1
 SUMMARY VOLUMETRIC BUDGET FOR GSFLOW 
 DATE: 02 03 1981              CUMULATIVE TIME STEP:     126
 MODFLOW STRESS PERIOD      2     CURRENT TIME STEP:     126     ITERATIONS:       9

 -----------------------------------------------------------------------------------

   CUMULATIVE VOLUMES               L**3   RATES FOR THIS TIME STEP           L**3/T
   ------------------                      ------------------------

                                     IN                                         IN
                                     --                                         --
        PRECIPITATION =        1.1739D+07          PRECIPITATION =                  
           STREAMFLOW =                               STREAMFLOW =                  
     GW BOUNDARY FLOW =                         GW BOUNDARY FLOW =                  


                                    OUT                                        OUT
                                    ---                                        ---
   EVAPOTRANSPIRATION =        3104242.94     EVAPOTRANSPIRATION =           6975.55
           STREAMFLOW =        1944712.44             STREAMFLOW =          18015.98
     GW BOUNDARY FLOW =          81879.89       GW BOUNDARY FLOW =            650.26

   INFLOWS - OUTFLOWS =        6607862.51     INFLOWS - OUTFLOWS =         -25641.80
             --------                                   --------

 TOTAL STORAGE CHANGE =        6615857.12         STORAGE CHANGE =         -25609.35
       --------------                             --------------
         LAND SURFACE =        6595850.65           LAND SURFACE =          -6975.55
            SOIL ZONE =        2169049.14              SOIL ZONE =            411.09
     UNSATURATED ZONE =       -1567547.61       UNSATURATED ZONE =         -11409.79
       SATURATED ZONE =        -581495.07         SATURATED ZONE =          -7635.10

 OVERALL BUDGET ERROR =          -7994.61           BUDGET ERROR =            -32.44


  PERCENT DISCREPANCY =             -0.07    PERCENT DISCREPANCY =             -0.13



1
 SUMMARY VOLUMETRIC BUDGET FOR GSFLOW 
 DATE: 02 10 1981              CUMULATIVE TIME STEP:     133
 MODFLOW STRESS PERIOD      2     CURRENT TIME STEP:     133     ITERATIONS:       7

 -----------------------------------------------------------------------------------

   CUMULATIVE VOLUMES               L**3   RATES FOR THIS TIME STEP           L**3/T
   ------------------                      ------------------------

                                     IN                                         IN
                                     --                                         --
        PRECIPITATION =        1.1838D+07          PRECIPITATION =                  
           STREAMFLOW =                               STREAMFLOW =                  
     GW BOUNDARY FLOW =                         GW BOUNDARY FLOW =                  


                                    OUT                                        OUT
                                    ---                                        ---
   EVAPOTRANSPIRATION =        3229644.18     EVAPOTRANSPIRATION =          32880.24
           STREAMFLOW =        2071045.40             STREAMFLOW =          18068.51
     GW BOUNDARY FLOW =          86431.70       GW BOUNDARY FLOW =            650.25

   INFLOWS - OUTFLOWS =        6451141.96     INFLOWS - OUTFLOWS =         -51598.99
             --------                                   --------

 TOTAL STORAGE CHANGE =        6459458.15         STORAGE CHANGE =         -51530.03
       --------------                             --------------
         LAND SURFACE =        6570014.87           LAND SURFACE =         -32880.24
            SOIL ZONE =        2173217.36              SOIL ZONE =            580.94
     UNSATURATED ZONE =       -1646085.73       UNSATURATED ZONE =         -10861.59
       SATURATED ZONE =        -637688.35         SATURATED ZONE =          -8369.14

 OVERALL BUDGET ERROR =          -8316.19           BUDGET ERROR =            -68.97


  PERCENT DISCREPANCY =             -0.07    PERCENT DISCREPANCY =             -0.13



1
 SUMMARY VOLUMETRIC BUDGET FOR GSFLOW 
 DATE: 02 17 1981              CUMULATIVE TIME STEP:     140
 MODFLOW STRESS PERIOD      2     CURRENT TIME STEP:     140     ITERATIONS:      14

 -----------------------------------------------------------------------------------

   CUMULATIVE VOLUMES               L**3   RATES FOR THIS TIME STEP           L**3/T
   ------------------                      ------------------------

                                     IN                                         IN
                                     --                                         --
        PRECIPITATION =        1.2765D+07          PRECIPITATION =          68928.68
           STREAMFLOW =                               STREAMFLOW =                  
     GW BOUNDARY FLOW =                         GW BOUNDARY FLOW =                  


                                    OUT                                        OUT
                                    ---                                        ---
   EVAPOTRANSPIRATION =        3567733.73     EVAPOTRANSPIRATION =          68604.82
           STREAMFLOW =        2616773.02             STREAMFLOW =         125635.75
     GW BOUNDARY FLOW =          91005.70       GW BOUNDARY FLOW =            656.88

   INFLOWS - OUTFLOWS =        6489468.21     INFLOWS - OUTFLOWS =        -125968.77
             --------                                   --------

 TOTAL STORAGE CHANGE =        6498052.97         STORAGE CHANGE =        -125952.59
       --------------                             --------------
         LAND SURFACE =        5590136.74           LAND SURFACE =        -278668.69
            SOIL ZONE =        2961561.42              SOIL ZONE =          72148.31
     UNSATURATED ZONE =       -1400289.53       UNSATURATED ZONE =          77983.66
       SATURATED ZONE =        -653355.67         SATURATED ZONE =           2584.13

 OVERALL BUDGET ERROR =          -8584.75           BUDGET ERROR =            -16.17


  PERCENT DISCREPANCY =             -0.07    PERCENT DISCREPANCY =             -0.01



1
 SUMMARY VOLUMETRIC BUDGET FOR GSFLOW 
 DATE: 02 24 1981              CUMULATIVE TIME STEP:     147
 MODFLOW STRESS PERIOD      2     CURRENT TIME STEP:     147     ITERATIONS:      14

 -----------------------------------------------------------------------------------

   CUMULATIVE VOLUMES               L**3   RATES FOR THIS TIME STEP           L**3/T
   ------------------                      ------------------------

                                     IN                                         IN
                                     --                                         --
        PRECIPITATION =        1.3179D+07          PRECIPITATION =         344647.71
           STREAMFLOW =                               STREAMFLOW =                  
     GW BOUNDARY FLOW =                         GW BOUNDARY FLOW =                  


                                    OUT                                        OUT
                                    ---                                        ---
   EVAPOTRANSPIRATION =        3909056.00     EVAPOTRANSPIRATION =          18832.86
           STREAMFLOW =        3176855.17             STREAMFLOW =          52180.40
     GW BOUNDARY FLOW =          95598.99       GW BOUNDARY FLOW =            655.16

   INFLOWS - OUTFLOWS =        5997048.29     INFLOWS - OUTFLOWS =         272979.29
             --------                                   --------

 TOTAL STORAGE CHANGE =        6005583.58         STORAGE CHANGE =         272969.06
       --------------                             --------------
         LAND SURFACE =        4984331.51           LAND SURFACE =         286391.25
            SOIL ZONE =        2698067.37              SOIL ZONE =         -43392.69
     UNSATURATED ZONE =       -1047802.74       UNSATURATED ZONE =          27557.29
       SATURATED ZONE =        -629012.55         SATURATED ZONE =           2413.21

 OVERALL BUDGET ERROR =          -8535.29           BUDGET ERROR =             10.23


  PERCENT DISCREPANCY =             -0.06    PERCENT DISCREPANCY =              0.00



1
 SUMMARY VOLUMETRIC BUDGET FOR GSFLOW 
 DATE: 03 03 1981              CUMULATIVE TIME STEP:     154
 MODFLOW STRESS PERIOD      2     CURRENT TIME STEP:     154     ITERATIONS:      11

 -----------------------------------------------------------------------------------

   CUMULATIVE VOLUMES               L**3   RATES FOR THIS TIME STEP           L**3/T
   ------------------                      ------------------------

                                     IN                                         IN
                                     --                                         --
        PRECIPITATION =        1.3447D+07          PRECIPITATION =                  
           STREAMFLOW =                               STREAMFLOW =                  
     GW BOUNDARY FLOW =                         GW BOUNDARY FLOW =                  


                                    OUT                                        OUT
                                    ---                                        ---
   EVAPOTRANSPIRATION =        4069737.60     EVAPOTRANSPIRATION =          45353.37
           STREAMFLOW =        3401223.56             STREAMFLOW =          27809.25
     GW BOUNDARY FLOW =         100171.97       GW BOUNDARY FLOW =            652.32

   INFLOWS - OUTFLOWS =        5875485.66     INFLOWS - OUTFLOWS =         -73814.95
             --------                                   --------

 TOTAL STORAGE CHANGE =        5883902.32         STORAGE CHANGE =         -73832.59
       --------------                             --------------
         LAND SURFACE =        5068234.96           LAND SURFACE =         -66032.09
            SOIL ZONE =        2489697.87              SOIL ZONE =           2861.81
     UNSATURATED ZONE =       -1041385.27       UNSATURATED ZONE =          -8835.69
       SATURATED ZONE =        -632645.23         SATURATED ZONE =          -1826.62

 OVERALL BUDGET ERROR =          -8416.66           BUDGET ERROR =             17.64


  PERCENT DISCREPANCY =             -0.06    PERCENT DISCREPANCY =              0.02



1
 SUMMARY VOLUMETRIC BUDGET FOR GSFLOW 
 DATE: 03 10 1981              CUMULATIVE TIME STEP:     161
 MODFLOW STRESS PERIOD      2     CURRENT TIME STEP:     161     ITERATIONS:      11

 -----------------------------------------------------------------------------------

   CUMULATIVE VOLUMES               L**3   RATES FOR THIS TIME STEP           L**3/T
   ------------------                      ------------------------

                                     IN                                         IN
                                     --                                         --
        PRECIPITATION =        1.3493D+07          PRECIPITATION =                  
           STREAMFLOW =                               STREAMFLOW =                  
     GW BOUNDARY FLOW =                         GW BOUNDARY FLOW =                  


                                    OUT                                        OUT
                                    ---                                        ---
   EVAPOTRANSPIRATION =        4415520.04     EVAPOTRANSPIRATION =          72809.14
           STREAMFLOW =        3637550.64             STREAMFLOW =          43705.21
     GW BOUNDARY FLOW =         104738.08       GW BOUNDARY FLOW =            652.94

   INFLOWS - OUTFLOWS =        5335145.75     INFLOWS - OUTFLOWS =        -117167.30
             --------                                   --------

 TOTAL STORAGE CHANGE =        5343489.72         STORAGE CHANGE =        -117185.75
       --------------                             --------------
         LAND SURFACE =        4391776.94           LAND SURFACE =        -169082.62
            SOIL ZONE =        2603685.53              SOIL ZONE =          28965.04
     UNSATURATED ZONE =       -1008375.88       UNSATURATED ZONE =          23164.32
       SATURATED ZONE =        -643596.87         SATURATED ZONE =           -232.49

 OVERALL BUDGET ERROR =          -8343.97           BUDGET ERROR =             18.45


  PERCENT DISCREPANCY =             -0.06    PERCENT DISCREPANCY =              0.02



1
 SUMMARY VOLUMETRIC BUDGET FOR GSFLOW 
 DATE: 03 17 1981              CUMULATIVE TIME STEP:     168
 MODFLOW STRESS PERIOD      2     CURRENT TIME STEP:     168     ITERATIONS:       9

 -----------------------------------------------------------------------------------

   CUMULATIVE VOLUMES               L**3   RATES FOR THIS TIME STEP           L**3/T
   ------------------                      ------------------------

                                     IN                                         IN
                                     --                                         --
        PRECIPITATION =        1.3745D+07          PRECIPITATION =                  
           STREAMFLOW =                               STREAMFLOW =                  
     GW BOUNDARY FLOW =                         GW BOUNDARY FLOW =                  


                                    OUT                                        OUT
                                    ---                                        ---
   EVAPOTRANSPIRATION =        4783924.78     EVAPOTRANSPIRATION =          40234.43
           STREAMFLOW =        3864891.57             STREAMFLOW =          24168.94
     GW BOUNDARY FLOW =         109305.42       GW BOUNDARY FLOW =            651.89

   INFLOWS - OUTFLOWS =        4986381.05     INFLOWS - OUTFLOWS =         -65055.25
             --------                                   --------

 TOTAL STORAGE CHANGE =        4994640.80         STORAGE CHANGE =         -65062.95
       --------------                             --------------
         LAND SURFACE =        4202563.01           LAND SURFACE =         -39897.20
            SOIL ZONE =        2438309.51              SOIL ZONE =          -5423.40
     UNSATURATED ZONE =        -987487.91       UNSATURATED ZONE =         -15763.61
       SATURATED ZONE =        -658743.81         SATURATED ZONE =          -3978.75

 OVERALL BUDGET ERROR =          -8259.75           BUDGET ERROR =              7.70


  PERCENT DISCREPANCY =             -0.06    PERCENT DISCREPANCY =              0.01



1
 SUMMARY VOLUMETRIC BUDGET FOR GSFLOW 
 DATE: 03 24 1981              CUMULATIVE TIME STEP:     175
 MODFLOW STRESS PERIOD      2     CURRENT TIME STEP:     175     ITERATIONS:       9

 -----------------------------------------------------------------------------------

   CUMULATIVE VOLUMES               L**3   RATES FOR THIS TIME STEP           L**3/T
   ------------------                      ------------------------

                                     IN                                         IN
                                     --                                         --
        PRECIPITATION =        1.4367D+07          PRECIPITATION =                  
           STREAMFLOW =                               STREAMFLOW =                  
     GW BOUNDARY FLOW =                         GW BOUNDARY FLOW =                  


                                    OUT                                        OUT
                                    ---                                        ---
   EVAPOTRANSPIRATION =        5139707.04     EVAPOTRANSPIRATION =          87430.63
           STREAMFLOW =        4040881.72             STREAMFLOW =          26840.18
     GW BOUNDARY FLOW =         113865.91       GW BOUNDARY FLOW =            651.46

   INFLOWS - OUTFLOWS =        5072301.57     INFLOWS - OUTFLOWS =        -114922.27
             --------                                   --------

 TOTAL STORAGE CHANGE =        5080585.76         STORAGE CHANGE =        -114926.80
       --------------                             --------------
         LAND SURFACE =        4477883.40           LAND SURFACE =         -65021.85
            SOIL ZONE =        2351063.95              SOIL ZONE =         -41080.78
     UNSATURATED ZONE =       -1058144.97       UNSATURATED ZONE =          -4277.28
       SATURATED ZONE =        -690216.61         SATURATED ZONE =          -4546.89

 OVERALL BUDGET ERROR =          -8284.19           BUDGET ERROR =              4.53


  PERCENT DISCREPANCY =             -0.06    PERCENT DISCREPANCY =              0.00



1
 SUMMARY VOLUMETRIC BUDGET FOR GSFLOW 
 DATE: 03 31 1981              CUMULATIVE TIME STEP:     182
 MODFLOW STRESS PERIOD      2     CURRENT TIME STEP:     182     ITERATIONS:      12

 -----------------------------------------------------------------------------------

   CUMULATIVE VOLUMES               L**3   RATES FOR THIS TIME STEP           L**3/T
   ------------------                      ------------------------

                                     IN                                         IN
                                     --                                         --
        PRECIPITATION =        1.5777D+07          PRECIPITATION =                  
           STREAMFLOW =                               STREAMFLOW =                  
     GW BOUNDARY FLOW =                         GW BOUNDARY FLOW =                  


                                    OUT                                        OUT
                                    ---                                        ---
   EVAPOTRANSPIRATION =        5569637.81     EVAPOTRANSPIRATION =          54089.89
           STREAMFLOW =        4550150.35             STREAMFLOW =          37150.73
     GW BOUNDARY FLOW =         118447.97       GW BOUNDARY FLOW =            653.61

   INFLOWS - OUTFLOWS =        5538530.05     INFLOWS - OUTFLOWS =         -91894.23
             --------                                   --------

 TOTAL STORAGE CHANGE =        5546753.37         STORAGE CHANGE =         -91915.03
       --------------                             --------------
         LAND SURFACE =        4494493.37           LAND SURFACE =         -55486.84
            SOIL ZONE =        2547527.77              SOIL ZONE =         -41726.21
     UNSATURATED ZONE =        -813704.70       UNSATURATED ZONE =           5909.41
       SATURATED ZONE =        -681563.06         SATURATED ZONE =           -611.39

 OVERALL BUDGET ERROR =          -8223.32           BUDGET ERROR =             20.80


  PERCENT DISCREPANCY =             -0.05    PERCENT DISCREPANCY =              0.02



1
 SUMMARY VOLUMETRIC BUDGET FOR GSFLOW 
 DATE: 04 07 1981              CUMULATIVE TIME STEP:     189
 MODFLOW STRESS PERIOD      2     CURRENT TIME STEP:     189     ITERATIONS:      10

 -----------------------------------------------------------------------------------

   CUMULATIVE VOLUMES               L**3   RATES FOR THIS TIME STEP           L**3/T
   ------------------                      ------------------------

                                     IN                                         IN
                                     --                                         --
        PRECIPITATION =        1.6121D+07          PRECIPITATION =                  
           STREAMFLOW =                               STREAMFLOW =                  
     GW BOUNDARY FLOW =                         GW BOUNDARY FLOW =                  


                                    OUT                                        OUT
                                    ---                                        ---
   EVAPOTRANSPIRATION =        6195701.94     EVAPOTRANSPIRATION =         103842.76
           STREAMFLOW =        4868767.09             STREAMFLOW =          43445.42
     GW BOUNDARY FLOW =         123023.32       GW BOUNDARY FLOW =            653.74

   INFLOWS - OUTFLOWS =        4933990.81     INFLOWS - OUTFLOWS =        -147941.92
             --------                                   --------

 TOTAL STORAGE CHANGE =        4942104.89         STORAGE CHANGE =        -147958.05
       --------------                             --------------
         LAND SURFACE =        3870392.88           LAND SURFACE =        -138669.71
            SOIL ZONE =        2478852.56              SOIL ZONE =         -20344.18
     UNSATURATED ZONE =        -729803.10       UNSATURATED ZONE =          10704.31
       SATURATED ZONE =        -677337.44         SATURATED ZONE =            351.52

 OVERALL BUDGET ERROR =          -8114.09           BUDGET ERROR =             16.13


  PERCENT DISCREPANCY =             -0.05    PERCENT DISCREPANCY =              0.01



1
 SUMMARY VOLUMETRIC BUDGET FOR GSFLOW 
 DATE: 04 14 1981              CUMULATIVE TIME STEP:     196
 MODFLOW STRESS PERIOD      2     CURRENT TIME STEP:     196     ITERATIONS:      13

 -----------------------------------------------------------------------------------

   CUMULATIVE VOLUMES               L**3   RATES FOR THIS TIME STEP           L**3/T
   ------------------                      ------------------------

                                     IN                                         IN
                                     --                                         --
        PRECIPITATION =        1.6121D+07          PRECIPITATION =                  
           STREAMFLOW =                               STREAMFLOW =                  
     GW BOUNDARY FLOW =                         GW BOUNDARY FLOW =                  


                                    OUT                                        OUT
                                    ---                                        ---
   EVAPOTRANSPIRATION =        7106391.68     EVAPOTRANSPIRATION =         191910.02
           STREAMFLOW =        5196306.02             STREAMFLOW =          55529.35
     GW BOUNDARY FLOW =         127598.75       GW BOUNDARY FLOW =            653.68

   INFLOWS - OUTFLOWS =        3691186.70     INFLOWS - OUTFLOWS =        -248093.06
             --------                                   --------

 TOTAL STORAGE CHANGE =        3699175.29         STORAGE CHANGE =        -248097.02
       --------------                             --------------
         LAND SURFACE =        2621639.71           LAND SURFACE =        -253015.87
            SOIL ZONE =        2387315.52              SOIL ZONE =         -16802.36
     UNSATURATED ZONE =        -639431.34       UNSATURATED ZONE =          19474.48
       SATURATED ZONE =        -670348.60         SATURATED ZONE =           2246.73

 OVERALL BUDGET ERROR =          -7988.59           BUDGET ERROR =              3.97


  PERCENT DISCREPANCY =             -0.05    PERCENT DISCREPANCY =              0.00



1
 SUMMARY VOLUMETRIC BUDGET FOR GSFLOW 
 DATE: 04 21 1981              CUMULATIVE TIME STEP:     203
 MODFLOW STRESS PERIOD      2     CURRENT TIME STEP:     203     ITERATIONS:      12

 -----------------------------------------------------------------------------------

   CUMULATIVE VOLUMES               L**3   RATES FOR THIS TIME STEP           L**3/T
   ------------------                      ------------------------

                                     IN                                         IN
                                     --                                         --
        PRECIPITATION =        1.6310D+07          PRECIPITATION =                  
           STREAMFLOW =                               STREAMFLOW =                  
     GW BOUNDARY FLOW =                         GW BOUNDARY FLOW =                  


                                    OUT                                        OUT
                                    ---                                        ---
   EVAPOTRANSPIRATION =        8178351.13     EVAPOTRANSPIRATION =         152248.53
           STREAMFLOW =        5535872.45             STREAMFLOW =          45842.19
     GW BOUNDARY FLOW =         132170.25       GW BOUNDARY FLOW =            652.64

   INFLOWS - OUTFLOWS =        2463863.58     INFLOWS - OUTFLOWS =        -198743.36
             --------                                   --------

 TOTAL STORAGE CHANGE =        2471733.52         STORAGE CHANGE =        -198771.09
       --------------                             --------------
         LAND SURFACE =        1441063.64           LAND SURFACE =        -121364.40
            SOIL ZONE =        2205432.51              SOIL ZONE =         -97315.59
     UNSATURATED ZONE =        -522142.26       UNSATURATED ZONE =          16939.68
       SATURATED ZONE =        -652620.38         SATURATED ZONE =           2969.23

 OVERALL BUDGET ERROR =          -7869.93           BUDGET ERROR =             27.72


  PERCENT DISCREPANCY =             -0.05    PERCENT DISCREPANCY =              0.01



1
 SUMMARY VOLUMETRIC BUDGET FOR GSFLOW 
 DATE: 04 28 1981              CUMULATIVE TIME STEP:     210
 MODFLOW STRESS PERIOD      2     CURRENT TIME STEP:     210     ITERATIONS:      14

 -----------------------------------------------------------------------------------

   CUMULATIVE VOLUMES               L**3   RATES FOR THIS TIME STEP           L**3/T
   ------------------                      ------------------------

                                     IN                                         IN
                                     --                                         --
        PRECIPITATION =        1.6515D+07          PRECIPITATION =                  
           STREAMFLOW =                               STREAMFLOW =                  
     GW BOUNDARY FLOW =                         GW BOUNDARY FLOW =                  


                                    OUT                                        OUT
                                    ---                                        ---
   EVAPOTRANSPIRATION =        9416874.16     EVAPOTRANSPIRATION =         200409.99
           STREAMFLOW =        5748239.90             STREAMFLOW =          24701.25
     GW BOUNDARY FLOW =         136729.78       GW BOUNDARY FLOW =            650.48

   INFLOWS - OUTFLOWS =        1213603.11     INFLOWS - OUTFLOWS =        -225761.72
             --------                                   --------

 TOTAL STORAGE CHANGE =        1221373.26         STORAGE CHANGE =        -225771.68
       --------------                             --------------
         LAND SURFACE =         691620.73           LAND SURFACE =         -83515.74
            SOIL ZONE =        1695372.81              SOIL ZONE =        -138441.21
     UNSATURATED ZONE =        -520915.26       UNSATURATED ZONE =          -4105.36
       SATURATED ZONE =        -644705.02         SATURATED ZONE =            290.63

 OVERALL BUDGET ERROR =          -7770.16           BUDGET ERROR =              9.95


  PERCENT DISCREPANCY =             -0.05    PERCENT DISCREPANCY =              0.00



1
 SUMMARY VOLUMETRIC BUDGET FOR GSFLOW 
 DATE: 05 05 1981              CUMULATIVE TIME STEP:     217
 MODFLOW STRESS PERIOD      2     CURRENT TIME STEP:     217     ITERATIONS:      13

 -----------------------------------------------------------------------------------

   CUMULATIVE VOLUMES               L**3   RATES FOR THIS TIME STEP           L**3/T
   ------------------                      ------------------------

                                     IN                                         IN
                                     --                                         --
        PRECIPITATION =        1.6515D+07          PRECIPITATION =                  
           STREAMFLOW =                               STREAMFLOW =                  
     GW BOUNDARY FLOW =                         GW BOUNDARY FLOW =                  


                                    OUT                                        OUT
                                    ---                                        ---
   EVAPOTRANSPIRATION =        1.0304D+07     EVAPOTRANSPIRATION =          52081.85
           STREAMFLOW =        5853324.17             STREAMFLOW =          10619.03
     GW BOUNDARY FLOW =         141276.16       GW BOUNDARY FLOW =            648.78

   INFLOWS - OUTFLOWS =         217021.64     INFLOWS - OUTFLOWS =         -63349.66
             --------                                   --------

 TOTAL STORAGE CHANGE =         224726.88         STORAGE CHANGE =         -63358.32
       --------------                             --------------
         LAND SURFACE =         347403.61           LAND SURFACE =         -17503.36
            SOIL ZONE =        1153978.22              SOIL ZONE =         -26285.04
     UNSATURATED ZONE =        -618832.91       UNSATURATED ZONE =         -16489.02
       SATURATED ZONE =        -657822.03         SATURATED ZONE =          -3080.91

 OVERALL BUDGET ERROR =          -7705.24           BUDGET ERROR =              8.66


  PERCENT DISCREPANCY =             -0.05    PERCENT DISCREPANCY =              0.01



1
 SUMMARY VOLUMETRIC BUDGET FOR GSFLOW 
 DATE: 05 12 1981              CUMULATIVE TIME STEP:     224
 MODFLOW STRESS PERIOD      2     CURRENT TIME STEP:     224     ITERATIONS:      15

 -----------------------------------------------------------------------------------

   CUMULATIVE VOLUMES               L**3   RATES FOR THIS TIME STEP           L**3/T
   ------------------                      ------------------------

                                     IN                                         IN
                                     --                                         --
        PRECIPITATION =        1.6515D+07          PRECIPITATION =                  
           STREAMFLOW =                               STREAMFLOW =                  
     GW BOUNDARY FLOW =                         GW BOUNDARY FLOW =                  


                                    OUT                                        OUT
                                    ---                                        ---
   EVAPOTRANSPIRATION =        1.0824D+07     EVAPOTRANSPIRATION =          91407.29
           STREAMFLOW =        5922463.23             STREAMFLOW =          10134.63
     GW BOUNDARY FLOW =         145814.62       GW BOUNDARY FLOW =            648.18

   INFLOWS - OUTFLOWS =        -377135.59     INFLOWS - OUTFLOWS =        -102190.10
             --------                                   --------

 TOTAL STORAGE CHANGE =        -369426.62         STORAGE CHANGE =        -102187.74
       --------------                             --------------
         LAND SURFACE =         198720.95           LAND SURFACE =         -25499.92
            SOIL ZONE =         845931.66              SOIL ZONE =         -57498.39
     UNSATURATED ZONE =        -726337.23       UNSATURATED ZONE =         -13702.03
       SATURATED ZONE =        -687741.99         SATURATED ZONE =          -5487.40

 OVERALL BUDGET ERROR =          -7708.97           BUDGET ERROR =             -2.37


  PERCENT DISCREPANCY =             -0.05    PERCENT DISCREPANCY =             -0.00



1
 SUMMARY VOLUMETRIC BUDGET FOR GSFLOW 
 DATE: 05 19 1981              CUMULATIVE TIME STEP:     231
 MODFLOW STRESS PERIOD      2     CURRENT TIME STEP:     231     ITERATIONS:      15

 -----------------------------------------------------------------------------------

   CUMULATIVE VOLUMES               L**3   RATES FOR THIS TIME STEP           L**3/T
   ------------------                      ------------------------

                                     IN                                         IN
                                     --                                         --
        PRECIPITATION =        1.7837D+07          PRECIPITATION =         169047.83
           STREAMFLOW =                               STREAMFLOW =                  
     GW BOUNDARY FLOW =                         GW BOUNDARY FLOW =                  


                                    OUT                                        OUT
                                    ---                                        ---
   EVAPOTRANSPIRATION =        1.1182D+07     EVAPOTRANSPIRATION =          35342.78
           STREAMFLOW =        6047122.52             STREAMFLOW =          25712.61
     GW BOUNDARY FLOW =         150353.69       GW BOUNDARY FLOW =            649.44

   INFLOWS - OUTFLOWS =         457891.96     INFLOWS - OUTFLOWS =         107343.00
             --------                                   --------

 TOTAL STORAGE CHANGE =         465599.79         STORAGE CHANGE =         107340.46
       --------------                             --------------
         LAND SURFACE =         167126.53           LAND SURFACE =           4530.43
            SOIL ZONE =        1825356.99              SOIL ZONE =         110326.30
     UNSATURATED ZONE =        -799125.20       UNSATURATED ZONE =          -1989.58
       SATURATED ZONE =        -727758.54         SATURATED ZONE =          -5526.70

 OVERALL BUDGET ERROR =          -7707.83           BUDGET ERROR =              2.54


  PERCENT DISCREPANCY =             -0.04    PERCENT DISCREPANCY =              0.00



1
 SUMMARY VOLUMETRIC BUDGET FOR GSFLOW 
 DATE: 05 26 1981              CUMULATIVE TIME STEP:     238
 MODFLOW STRESS PERIOD      2     CURRENT TIME STEP:     238     ITERATIONS:      12

 -----------------------------------------------------------------------------------

   CUMULATIVE VOLUMES               L**3   RATES FOR THIS TIME STEP           L**3/T
   ------------------                      ------------------------

                                     IN                                         IN
                                     --                                         --
        PRECIPITATION =        1.8252D+07          PRECIPITATION =         284301.98
           STREAMFLOW =                               STREAMFLOW =                  
     GW BOUNDARY FLOW =                         GW BOUNDARY FLOW =                  


                                    OUT                                        OUT
                                    ---                                        ---
   EVAPOTRANSPIRATION =        1.2069D+07     EVAPOTRANSPIRATION =         143477.49
           STREAMFLOW =        6153698.38             STREAMFLOW =          18236.88
     GW BOUNDARY FLOW =         154894.37       GW BOUNDARY FLOW =            648.43

   INFLOWS - OUTFLOWS =        -125468.80     INFLOWS - OUTFLOWS =         121939.19
             --------                                   --------

 TOTAL STORAGE CHANGE =        -117745.88         STORAGE CHANGE =         121940.83
       --------------                             --------------
         LAND SURFACE =          96901.93           LAND SURFACE =          -7055.52
            SOIL ZONE =        1422146.38              SOIL ZONE =         146906.37
     UNSATURATED ZONE =        -860715.67       UNSATURATED ZONE =         -11055.53
       SATURATED ZONE =        -776078.52         SATURATED ZONE =          -6854.49

 OVERALL BUDGET ERROR =          -7722.92           BUDGET ERROR =             -1.64


  PERCENT DISCREPANCY =             -0.04    PERCENT DISCREPANCY =             -0.00



1
 SUMMARY VOLUMETRIC BUDGET FOR GSFLOW 
 DATE: 06 02 1981              CUMULATIVE TIME STEP:     245
 MODFLOW STRESS PERIOD      2     CURRENT TIME STEP:     245     ITERATIONS:      14

 -----------------------------------------------------------------------------------

   CUMULATIVE VOLUMES               L**3   RATES FOR THIS TIME STEP           L**3/T
   ------------------                      ------------------------

                                     IN                                         IN
                                     --                                         --
        PRECIPITATION =        1.8318D+07          PRECIPITATION =          50867.39
           STREAMFLOW =                               STREAMFLOW =                  
     GW BOUNDARY FLOW =                         GW BOUNDARY FLOW =                  


                                    OUT                                        OUT
                                    ---                                        ---
   EVAPOTRANSPIRATION =        1.2872D+07     EVAPOTRANSPIRATION =          65294.67
           STREAMFLOW =        6220042.98             STREAMFLOW =           7490.67
     GW BOUNDARY FLOW =         159429.04       GW BOUNDARY FLOW =            647.38

   INFLOWS - OUTFLOWS =        -933278.76     INFLOWS - OUTFLOWS =         -22565.34
             --------                                   --------

 TOTAL STORAGE CHANGE =        -925516.19         STORAGE CHANGE =         -22558.17
       --------------                             --------------
         LAND SURFACE =          61824.55           LAND SURFACE =          30829.61
            SOIL ZONE =         795941.65              SOIL ZONE =         -31138.69
     UNSATURATED ZONE =        -949861.65       UNSATURATED ZONE =         -13743.16
       SATURATED ZONE =        -833420.75         SATURATED ZONE =          -8505.93

 OVERALL BUDGET ERROR =          -7762.57           BUDGET ERROR =             -7.17


  PERCENT DISCREPANCY =             -0.04    PERCENT DISCREPANCY =             -0.01



1
 SUMMARY VOLUMETRIC BUDGET FOR GSFLOW 
 DATE: 06 09 1981              CUMULATIVE TIME STEP:     252
 MODFLOW STRESS PERIOD      2     CURRENT TIME STEP:     252     ITERATIONS:      13

 -----------------------------------------------------------------------------------

   CUMULATIVE VOLUMES               L**3   RATES FOR THIS TIME STEP           L**3/T
   ------------------                      ------------------------

                                     IN                                         IN
                                     --                                         --
        PRECIPITATION =        1.8318D+07          PRECIPITATION =                  
           STREAMFLOW =                               STREAMFLOW =                  
     GW BOUNDARY FLOW =                         GW BOUNDARY FLOW =                  


                                    OUT                                        OUT
                                    ---                                        ---
   EVAPOTRANSPIRATION =        1.3342D+07     EVAPOTRANSPIRATION =          48772.27
           STREAMFLOW =        6266808.76             STREAMFLOW =           6331.74
     GW BOUNDARY FLOW =         163958.72       GW BOUNDARY FLOW =            646.94

   INFLOWS - OUTFLOWS =       -1454961.66     INFLOWS - OUTFLOWS =         -55750.95
             --------                                   --------

 TOTAL STORAGE CHANGE =       -1447166.36         STORAGE CHANGE =         -55742.20
       --------------                             --------------
         LAND SURFACE =           8254.44           LAND SURFACE =          -1595.45
            SOIL ZONE =         483589.87              SOIL ZONE =         -31947.70
     UNSATURATED ZONE =       -1043725.05       UNSATURATED ZONE =         -13202.04
       SATURATED ZONE =        -895285.62         SATURATED ZONE =          -8997.01

 OVERALL BUDGET ERROR =          -7795.31           BUDGET ERROR =             -8.74


  PERCENT DISCREPANCY =             -0.04    PERCENT DISCREPANCY =             -0.02



1
 SUMMARY VOLUMETRIC BUDGET FOR GSFLOW 
 DATE: 06 16 1981              CUMULATIVE TIME STEP:     259
 MODFLOW STRESS PERIOD      2     CURRENT TIME STEP:     259     ITERATIONS:      12

 -----------------------------------------------------------------------------------

   CUMULATIVE VOLUMES               L**3   RATES FOR THIS TIME STEP           L**3/T
   ------------------                      ------------------------

                                     IN                                         IN
                                     --                                         --
        PRECIPITATION =        1.8318D+07          PRECIPITATION =                  
           STREAMFLOW =                               STREAMFLOW =                  
     GW BOUNDARY FLOW =                         GW BOUNDARY FLOW =                  


                                    OUT                                        OUT
                                    ---                                        ---
   EVAPOTRANSPIRATION =        1.3528D+07     EVAPOTRANSPIRATION =          44144.35
           STREAMFLOW =        6310109.24             STREAMFLOW =           6122.69
     GW BOUNDARY FLOW =         168486.42       GW BOUNDARY FLOW =            646.73

   INFLOWS - OUTFLOWS =       -1687867.93     INFLOWS - OUTFLOWS =         -50913.78
             --------                                   --------

 TOTAL STORAGE CHANGE =       -1680038.26         STORAGE CHANGE =         -50914.19
       --------------                             --------------
         LAND SURFACE =           3426.51           LAND SURFACE =           -943.67
            SOIL ZONE =         409664.26              SOIL ZONE =         -28077.89
     UNSATURATED ZONE =       -1133941.97       UNSATURATED ZONE =         -12604.71
       SATURATED ZONE =        -959187.06         SATURATED ZONE =          -9287.92

 OVERALL BUDGET ERROR =          -7829.67           BUDGET ERROR =              0.41


  PERCENT DISCREPANCY =             -0.04    PERCENT DISCREPANCY =              0.00



1
 SUMMARY VOLUMETRIC BUDGET FOR GSFLOW 
 DATE: 06 23 1981              CUMULATIVE TIME STEP:     266
 MODFLOW STRESS PERIOD      2     CURRENT TIME STEP:     266     ITERATIONS:      14

 -----------------------------------------------------------------------------------

   CUMULATIVE VOLUMES               L**3   RATES FOR THIS TIME STEP           L**3/T
   ------------------                      ------------------------

                                     IN                                         IN
                                     --                                         --
        PRECIPITATION =        1.8318D+07          PRECIPITATION =                  
           STREAMFLOW =                               STREAMFLOW =                  
     GW BOUNDARY FLOW =                         GW BOUNDARY FLOW =                  


                                    OUT                                        OUT
                                    ---                                        ---
   EVAPOTRANSPIRATION =        1.3807D+07     EVAPOTRANSPIRATION =          33110.43
           STREAMFLOW =        6352134.92             STREAMFLOW =           5942.01
     GW BOUNDARY FLOW =         173012.89       GW BOUNDARY FLOW =            646.57

   INFLOWS - OUTFLOWS =       -2013704.01     INFLOWS - OUTFLOWS =         -39699.01
             --------                                   --------

 TOTAL STORAGE CHANGE =       -2005849.52         STORAGE CHANGE =         -39696.99
       --------------                             --------------
         LAND SURFACE =                             LAND SURFACE =                  
            SOIL ZONE =         239343.22              SOIL ZONE =         -18090.75
     UNSATURATED ZONE =       -1219235.37       UNSATURATED ZONE =         -11757.56
       SATURATED ZONE =       -1025957.37         SATURATED ZONE =          -9848.68

 OVERALL BUDGET ERROR =          -7854.49           BUDGET ERROR =             -2.02


  PERCENT DISCREPANCY =             -0.04    PERCENT DISCREPANCY =             -0.01



1
 SUMMARY VOLUMETRIC BUDGET FOR GSFLOW 
 DATE: 06 30 1981              CUMULATIVE TIME STEP:     273
 MODFLOW STRESS PERIOD      2     CURRENT TIME STEP:     273     ITERATIONS:       9

 -----------------------------------------------------------------------------------

   CUMULATIVE VOLUMES               L**3   RATES FOR THIS TIME STEP           L**3/T
   ------------------                      ------------------------

                                     IN                                         IN
[...]
                                    ---                                        ---
   EVAPOTRANSPIRATION =        2.8838D+08     EVAPOTRANSPIRATION =          41363.40
           STREAMFLOW =        1.8091D+08             STREAMFLOW =           6901.26
     GW BOUNDARY FLOW =        3735740.23       GW BOUNDARY FLOW =            650.71

   INFLOWS - OUTFLOWS =       -7965520.55     INFLOWS - OUTFLOWS =         -48915.37
             --------                                   --------

 TOTAL STORAGE CHANGE =       -7777293.72         STORAGE CHANGE =         -48931.77
       --------------                             --------------
         LAND SURFACE =          84521.90           LAND SURFACE =          -4963.73
            SOIL ZONE =         222864.48              SOIL ZONE =         -22641.29
     UNSATURATED ZONE =        5275895.92       UNSATURATED ZONE =         -27623.21
       SATURATED ZONE =       -1.3361D+07         SATURATED ZONE =           6296.47

 OVERALL BUDGET ERROR =        -188226.83           BUDGET ERROR =             16.39


  PERCENT DISCREPANCY =             -0.04    PERCENT DISCREPANCY =              0.03



1
 SUMMARY VOLUMETRIC BUDGET FOR GSFLOW 
 DATE: 07 30 1996              CUMULATIVE TIME STEP:    5782
 MODFLOW STRESS PERIOD      2     CURRENT TIME STEP:    5782     ITERATIONS:      13

 -----------------------------------------------------------------------------------

   CUMULATIVE VOLUMES               L**3   RATES FOR THIS TIME STEP           L**3/T
   ------------------                      ------------------------

                                     IN                                         IN
                                     --                                         --
        PRECIPITATION =        4.6511D+08          PRECIPITATION =                  
           STREAMFLOW =                               STREAMFLOW =                  
     GW BOUNDARY FLOW =                         GW BOUNDARY FLOW =                  


                                    OUT                                        OUT
                                    ---                                        ---
   EVAPOTRANSPIRATION =        2.8864D+08     EVAPOTRANSPIRATION =          25475.54
           STREAMFLOW =        1.8096D+08             STREAMFLOW =           6746.89
     GW BOUNDARY FLOW =        3740293.62       GW BOUNDARY FLOW =            650.29

   INFLOWS - OUTFLOWS =       -8222597.04     INFLOWS - OUTFLOWS =         -32872.73
             --------                                   --------

 TOTAL STORAGE CHANGE =       -8034462.74         STORAGE CHANGE =         -32897.84
       --------------                             --------------
         LAND SURFACE =          55427.09           LAND SURFACE =          -3488.58
            SOIL ZONE =         142679.55              SOIL ZONE =          -8405.15
     UNSATURATED ZONE =        5088475.70       UNSATURATED ZONE =         -26289.33
       SATURATED ZONE =       -1.3321D+07         SATURATED ZONE =           5285.22

 OVERALL BUDGET ERROR =        -188134.30           BUDGET ERROR =             25.11


  PERCENT DISCREPANCY =             -0.04    PERCENT DISCREPANCY =              0.08



1
 SUMMARY VOLUMETRIC BUDGET FOR GSFLOW 
 DATE: 08 06 1996              CUMULATIVE TIME STEP:    5789
 MODFLOW STRESS PERIOD      2     CURRENT TIME STEP:    5789     ITERATIONS:      14

 -----------------------------------------------------------------------------------

   CUMULATIVE VOLUMES               L**3   RATES FOR THIS TIME STEP           L**3/T
   ------------------                      ------------------------

                                     IN                                         IN
                                     --                                         --
        PRECIPITATION =        4.6511D+08          PRECIPITATION =                  
           STREAMFLOW =                               STREAMFLOW =                  
     GW BOUNDARY FLOW =                         GW BOUNDARY FLOW =                  


                                    OUT                                        OUT
                                    ---                                        ---
   EVAPOTRANSPIRATION =        2.8877D+08     EVAPOTRANSPIRATION =          16961.76
           STREAMFLOW =        1.8100D+08             STREAMFLOW =           6546.45
     GW BOUNDARY FLOW =        3744843.89       GW BOUNDARY FLOW =            649.92

   INFLOWS - OUTFLOWS =       -8409800.02     INFLOWS - OUTFLOWS =         -24158.14
             --------                                   --------

 TOTAL STORAGE CHANGE =       -8221791.48         STORAGE CHANGE =         -24169.42
       --------------                             --------------
         LAND SURFACE =          37080.11           LAND SURFACE =          -2254.04
            SOIL ZONE =         119482.49              SOIL ZONE =          -1220.21
     UNSATURATED ZONE =        4906758.64       UNSATURATED ZONE =         -25480.49
       SATURATED ZONE =       -1.3285D+07         SATURATED ZONE =           4785.32

 OVERALL BUDGET ERROR =        -188008.54           BUDGET ERROR =             11.28


  PERCENT DISCREPANCY =             -0.04    PERCENT DISCREPANCY =              0.05



1
 SUMMARY VOLUMETRIC BUDGET FOR GSFLOW 
 DATE: 08 13 1996              CUMULATIVE TIME STEP:    5796
 MODFLOW STRESS PERIOD      2     CURRENT TIME STEP:    5796     ITERATIONS:      14

 -----------------------------------------------------------------------------------

   CUMULATIVE VOLUMES               L**3   RATES FOR THIS TIME STEP           L**3/T
   ------------------                      ------------------------

                                     IN                                         IN
                                     --                                         --
        PRECIPITATION =        4.6531D+08          PRECIPITATION =          54456.73
           STREAMFLOW =                               STREAMFLOW =                  
     GW BOUNDARY FLOW =                         GW BOUNDARY FLOW =                  


                                    OUT                                        OUT
                                    ---                                        ---
   EVAPOTRANSPIRATION =        2.8894D+08     EVAPOTRANSPIRATION =          33327.59
           STREAMFLOW =        1.8105D+08             STREAMFLOW =           7746.91
     GW BOUNDARY FLOW =        3749393.24       GW BOUNDARY FLOW =            649.96

   INFLOWS - OUTFLOWS =       -8433342.15     INFLOWS - OUTFLOWS =          12732.28
             --------                                   --------

 TOTAL STORAGE CHANGE =       -8245425.65         STORAGE CHANGE =          12733.26
       --------------                             --------------
         LAND SURFACE =          53177.14           LAND SURFACE =          -2312.81
            SOIL ZONE =         223159.01              SOIL ZONE =          35329.33
     UNSATURATED ZONE =        4733873.23       UNSATURATED ZONE =         -24055.90
       SATURATED ZONE =       -1.3256D+07         SATURATED ZONE =           3772.65

 OVERALL BUDGET ERROR =        -187916.51           BUDGET ERROR =             -0.99


  PERCENT DISCREPANCY =             -0.04    PERCENT DISCREPANCY =             -0.00



1
 SUMMARY VOLUMETRIC BUDGET FOR GSFLOW 
 DATE: 08 20 1996              CUMULATIVE TIME STEP:    5803
 MODFLOW STRESS PERIOD      2     CURRENT TIME STEP:    5803     ITERATIONS:      13

 -----------------------------------------------------------------------------------

   CUMULATIVE VOLUMES               L**3   RATES FOR THIS TIME STEP           L**3/T
   ------------------                      ------------------------

                                     IN                                         IN
                                     --                                         --
        PRECIPITATION =        4.6531D+08          PRECIPITATION =                  
           STREAMFLOW =                               STREAMFLOW =                  
     GW BOUNDARY FLOW =                         GW BOUNDARY FLOW =                  


                                    OUT                                        OUT
                                    ---                                        ---
   EVAPOTRANSPIRATION =        2.8914D+08     EVAPOTRANSPIRATION =          16740.15
           STREAMFLOW =        1.8110D+08             STREAMFLOW =           6353.39
     GW BOUNDARY FLOW =        3753941.53       GW BOUNDARY FLOW =            649.60

   INFLOWS - OUTFLOWS =       -8681083.52     INFLOWS - OUTFLOWS =         -23743.15
             --------                                   --------

 TOTAL STORAGE CHANGE =       -8493303.31         STORAGE CHANGE =         -23766.88
       --------------                             --------------
         LAND SURFACE =           6933.74           LAND SURFACE =          -1297.55
            SOIL ZONE =         163547.12              SOIL ZONE =          -2281.76
     UNSATURATED ZONE =        4569568.41       UNSATURATED ZONE =         -23051.20
       SATURATED ZONE =       -1.3233D+07         SATURATED ZONE =           2863.63

 OVERALL BUDGET ERROR =        -187780.21           BUDGET ERROR =             23.73


  PERCENT DISCREPANCY =             -0.04    PERCENT DISCREPANCY =              0.10



1
 SUMMARY VOLUMETRIC BUDGET FOR GSFLOW 
 DATE: 08 27 1996              CUMULATIVE TIME STEP:    5810
 MODFLOW STRESS PERIOD      2     CURRENT TIME STEP:    5810     ITERATIONS:      13

 -----------------------------------------------------------------------------------

   CUMULATIVE VOLUMES               L**3   RATES FOR THIS TIME STEP           L**3/T
   ------------------                      ------------------------

                                     IN                                         IN
                                     --                                         --
        PRECIPITATION =        4.6531D+08          PRECIPITATION =                  
           STREAMFLOW =                               STREAMFLOW =                  
     GW BOUNDARY FLOW =                         GW BOUNDARY FLOW =                  


                                    OUT                                        OUT
                                    ---                                        ---
   EVAPOTRANSPIRATION =        2.8928D+08     EVAPOTRANSPIRATION =          15223.06
           STREAMFLOW =        1.8114D+08             STREAMFLOW =           6194.69
     GW BOUNDARY FLOW =        3758487.45       GW BOUNDARY FLOW =            649.27

   INFLOWS - OUTFLOWS =       -8865892.55     INFLOWS - OUTFLOWS =         -22067.02
             --------                                   --------

 TOTAL STORAGE CHANGE =       -8678216.10         STORAGE CHANGE =         -22084.30
       --------------                             --------------
         LAND SURFACE =           1244.67           LAND SURFACE =           -272.68
            SOIL ZONE =         124600.28              SOIL ZONE =          -1870.97
     UNSATURATED ZONE =        4413373.90       UNSATURATED ZONE =         -21925.03
       SATURATED ZONE =       -1.3217D+07         SATURATED ZONE =           1984.38

 OVERALL BUDGET ERROR =        -187676.45           BUDGET ERROR =             17.27


  PERCENT DISCREPANCY =             -0.04    PERCENT DISCREPANCY =              0.08



1
 SUMMARY VOLUMETRIC BUDGET FOR GSFLOW 
 DATE: 09 03 1996              CUMULATIVE TIME STEP:    5817
 MODFLOW STRESS PERIOD      2     CURRENT TIME STEP:    5817     ITERATIONS:      12

 -----------------------------------------------------------------------------------

   CUMULATIVE VOLUMES               L**3   RATES FOR THIS TIME STEP           L**3/T
   ------------------                      ------------------------

                                     IN                                         IN
                                     --                                         --
        PRECIPITATION =        4.6531D+08          PRECIPITATION =                  
           STREAMFLOW =                               STREAMFLOW =                  
     GW BOUNDARY FLOW =                         GW BOUNDARY FLOW =                  


                                    OUT                                        OUT
                                    ---                                        ---
   EVAPOTRANSPIRATION =        2.8938D+08     EVAPOTRANSPIRATION =          13743.93
           STREAMFLOW =        1.8119D+08             STREAMFLOW =           6095.28
     GW BOUNDARY FLOW =        3763030.85       GW BOUNDARY FLOW =            648.89

   INFLOWS - OUTFLOWS =       -9016772.79     INFLOWS - OUTFLOWS =         -20488.10
             --------                                   --------

 TOTAL STORAGE CHANGE =       -8829268.64         STORAGE CHANGE =         -20513.08
       --------------                             --------------
         LAND SURFACE =            584.39           LAND SURFACE =            -75.06
            SOIL ZONE =         112939.84              SOIL ZONE =           -713.47
     UNSATURATED ZONE =        4263267.54       UNSATURATED ZONE =         -21235.56
       SATURATED ZONE =       -1.3206D+07         SATURATED ZONE =           1511.01

 OVERALL BUDGET ERROR =        -187504.15           BUDGET ERROR =             24.98


  PERCENT DISCREPANCY =             -0.04    PERCENT DISCREPANCY =              0.12



1
 SUMMARY VOLUMETRIC BUDGET FOR GSFLOW 
 DATE: 09 10 1996              CUMULATIVE TIME STEP:    5824
 MODFLOW STRESS PERIOD      2     CURRENT TIME STEP:    5824     ITERATIONS:      12

 -----------------------------------------------------------------------------------

   CUMULATIVE VOLUMES               L**3   RATES FOR THIS TIME STEP           L**3/T
   ------------------                      ------------------------

                                     IN                                         IN
                                     --                                         --
        PRECIPITATION =        4.6531D+08          PRECIPITATION =                  
           STREAMFLOW =                               STREAMFLOW =                  
     GW BOUNDARY FLOW =                         GW BOUNDARY FLOW =                  


                                    OUT                                        OUT
                                    ---                                        ---
   EVAPOTRANSPIRATION =        2.8946D+08     EVAPOTRANSPIRATION =          13319.74
           STREAMFLOW =        1.8123D+08             STREAMFLOW =           6003.74
     GW BOUNDARY FLOW =        3767571.64       GW BOUNDARY FLOW =            648.52

   INFLOWS - OUTFLOWS =       -9145183.83     INFLOWS - OUTFLOWS =         -19972.01
             --------                                   --------

 TOTAL STORAGE CHANGE =       -8957864.37         STORAGE CHANGE =         -20003.20
       --------------                             --------------
         LAND SURFACE =            141.93           LAND SURFACE =            -69.29
            SOIL ZONE =         122005.17              SOIL ZONE =           -417.93
     UNSATURATED ZONE =        4115767.41       UNSATURATED ZONE =         -20861.51
       SATURATED ZONE =       -1.3196D+07         SATURATED ZONE =           1345.53

 OVERALL BUDGET ERROR =        -187319.46           BUDGET ERROR =             31.19


  PERCENT DISCREPANCY =             -0.04    PERCENT DISCREPANCY =              0.16



1
 SUMMARY VOLUMETRIC BUDGET FOR GSFLOW 
 DATE: 09 17 1996              CUMULATIVE TIME STEP:    5831
 MODFLOW STRESS PERIOD      2     CURRENT TIME STEP:    5831     ITERATIONS:      11

 -----------------------------------------------------------------------------------

   CUMULATIVE VOLUMES               L**3   RATES FOR THIS TIME STEP           L**3/T
   ------------------                      ------------------------

                                     IN                                         IN
                                     --                                         --
        PRECIPITATION =        4.6637D+08          PRECIPITATION =                  
           STREAMFLOW =                               STREAMFLOW =                  
     GW BOUNDARY FLOW =                         GW BOUNDARY FLOW =                  


                                    OUT                                        OUT
                                    ---                                        ---
   EVAPOTRANSPIRATION =        2.8965D+08     EVAPOTRANSPIRATION =          63860.91
           STREAMFLOW =        1.8129D+08             STREAMFLOW =          10057.78
     GW BOUNDARY FLOW =        3772111.79       GW BOUNDARY FLOW =            648.93

   INFLOWS - OUTFLOWS =       -8346857.18     INFLOWS - OUTFLOWS =         -74567.63
             --------                                   --------

 TOTAL STORAGE CHANGE =       -8159730.17         STORAGE CHANGE =         -74606.21
       --------------                             --------------
         LAND SURFACE =           2829.02           LAND SURFACE =         -35615.32
            SOIL ZONE =        1051001.80              SOIL ZONE =         -19670.79
     UNSATURATED ZONE =        3973901.45       UNSATURATED ZONE =         -19850.12
       SATURATED ZONE =       -1.3187D+07         SATURATED ZONE =            530.03

 OVERALL BUDGET ERROR =        -187127.01           BUDGET ERROR =             38.58


  PERCENT DISCREPANCY =             -0.04    PERCENT DISCREPANCY =              0.05



1
 SUMMARY VOLUMETRIC BUDGET FOR GSFLOW 
 DATE: 09 24 1996              CUMULATIVE TIME STEP:    5838
 MODFLOW STRESS PERIOD      2     CURRENT TIME STEP:    5838     ITERATIONS:      12

 -----------------------------------------------------------------------------------

   CUMULATIVE VOLUMES               L**3   RATES FOR THIS TIME STEP           L**3/T
   ------------------                      ------------------------

                                     IN                                         IN
                                     --                                         --
        PRECIPITATION =        4.6637D+08          PRECIPITATION =                  
           STREAMFLOW =                               STREAMFLOW =                  
     GW BOUNDARY FLOW =                         GW BOUNDARY FLOW =                  


                                    OUT                                        OUT
                                    ---                                        ---
   EVAPOTRANSPIRATION =        2.9013D+08     EVAPOTRANSPIRATION =          55315.25
           STREAMFLOW =        1.8134D+08             STREAMFLOW =           6404.02
     GW BOUNDARY FLOW =        3776650.36       GW BOUNDARY FLOW =            648.03

   INFLOWS - OUTFLOWS =       -8886431.22     INFLOWS - OUTFLOWS =         -62367.30
             --------                                   --------

 TOTAL STORAGE CHANGE =       -8699520.14         STORAGE CHANGE =         -62392.47
       --------------                             --------------
         LAND SURFACE =                             LAND SURFACE =                  
            SOIL ZONE =         648586.15              SOIL ZONE =         -43258.70
     UNSATURATED ZONE =        3838397.23       UNSATURATED ZONE =         -19160.06
       SATURATED ZONE =       -1.3187D+07         SATURATED ZONE =             26.30

 OVERALL BUDGET ERROR =        -186911.08           BUDGET ERROR =             25.17


  PERCENT DISCREPANCY =             -0.04    PERCENT DISCREPANCY =              0.04



