1
 SUMMARY VOLUMETRIC BUDGET FOR GSFLOW 
 DATE: 10 07 1980              CUMULATIVE TIME STEP:       7
 MODFLOW STRESS PERIOD      2     CURRENT TIME STEP:       7     ITERATIONS:       6

 -----------------------------------------------------------------------------------

   CUMULATIVE VOLUMES               L**3   RATES FOR THIS TIME STEP           L**3/T
   ------------------                      ------------------------

                                     IN                                         IN
                                     --                                         --
        PRECIPITATION =                            PRECIPITATION =                  
           STREAMFLOW =                               STREAMFLOW =                  
     GW BOUNDARY FLOW =                         GW BOUNDARY FLOW =                  


                                    OUT                                        OUT
                                    ---                                        ---
   EVAPOTRANSPIRATION =          66593.70     EVAPOTRANSPIRATION =           9275.44
           STREAMFLOW =          42957.63             STREAMFLOW =           6065.77
     GW BOUNDARY FLOW =           4541.44       GW BOUNDARY FLOW =            648.70

   INFLOWS - OUTFLOWS =        -114092.76     INFLOWS - OUTFLOWS =         -15989.92
             --------                                   --------

 TOTAL STORAGE CHANGE =        -113636.98         STORAGE CHANGE =         -15921.60
       --------------                             --------------
         LAND SURFACE =                             LAND SURFACE =                  
            SOIL ZONE =          43923.35              SOIL ZONE =           6420.97
     UNSATURATED ZONE =        -144777.37       UNSATURATED ZONE =         -20360.11
       SATURATED ZONE =         -12782.96         SATURATED ZONE =          -1982.46

 OVERALL BUDGET ERROR =           -455.78           BUDGET ERROR =            -68.32


  PERCENT DISCREPANCY =             -0.40    PERCENT DISCREPANCY =             -0.43



1
 SUMMARY VOLUMETRIC BUDGET FOR GSFLOW 
 DATE: 10 14 1980              CUMULATIVE TIME STEP:      14
 MODFLOW STRESS PERIOD      2     CURRENT TIME STEP:      14     ITERATIONS:       6

 -----------------------------------------------------------------------------------

   CUMULATIVE VOLUMES               L**3   RATES FOR THIS TIME STEP           L**3/T
   ------------------                      ------------------------

                                     IN                                         IN
                                     --                                         --
        PRECIPITATION =         650780.39          PRECIPITATION =         164754.68
           STREAMFLOW =                               STREAMFLOW =                  
     GW BOUNDARY FLOW =                         GW BOUNDARY FLOW =                  


                                    OUT                                        OUT
                                    ---                                        ---
   EVAPOTRANSPIRATION =         162752.49     EVAPOTRANSPIRATION =          11476.74
           STREAMFLOW =          94486.52             STREAMFLOW =           7727.20
     GW BOUNDARY FLOW =           9082.96       GW BOUNDARY FLOW =            648.94

   INFLOWS - OUTFLOWS =         384458.43     INFLOWS - OUTFLOWS =         144901.80
             --------                                   --------

 TOTAL STORAGE CHANGE =         385429.01         STORAGE CHANGE =         144975.14
       --------------                             --------------
         LAND SURFACE =         183752.11           LAND SURFACE =         130549.81
            SOIL ZONE =         513612.85              SOIL ZONE =          36443.93
     UNSATURATED ZONE =        -284494.58       UNSATURATED ZONE =         -19624.00
       SATURATED ZONE =         -27441.37         SATURATED ZONE =          -2394.60

 OVERALL BUDGET ERROR =           -970.58           BUDGET ERROR =            -73.34


  PERCENT DISCREPANCY =             -0.15    PERCENT DISCREPANCY =             -0.04



1
 SUMMARY VOLUMETRIC BUDGET FOR GSFLOW 
 DATE: 10 21 1980              CUMULATIVE TIME STEP:      21
 MODFLOW STRESS PERIOD      2     CURRENT TIME STEP:      21     ITERATIONS:       6

 -----------------------------------------------------------------------------------

   CUMULATIVE VOLUMES               L**3   RATES FOR THIS TIME STEP           L**3/T
   ------------------                      ------------------------

                                     IN                                         IN
                                     --                                         --
        PRECIPITATION =         733156.23          PRECIPITATION =                  
           STREAMFLOW =                               STREAMFLOW =                  
     GW BOUNDARY FLOW =                         GW BOUNDARY FLOW =                  


                                    OUT                                        OUT
                                    ---                                        ---
   EVAPOTRANSPIRATION =         432975.10     EVAPOTRANSPIRATION =          44099.04
           STREAMFLOW =         145881.27             STREAMFLOW =           6877.90
     GW BOUNDARY FLOW =          13624.72       GW BOUNDARY FLOW =            648.74

   INFLOWS - OUTFLOWS =         140675.15     INFLOWS - OUTFLOWS =         -51625.68
             --------                                   --------

 TOTAL STORAGE CHANGE =         142155.52         STORAGE CHANGE =         -51545.24
       --------------                             --------------
         LAND SURFACE =                             LAND SURFACE =                  
            SOIL ZONE =         607227.41              SOIL ZONE =         -29694.33
     UNSATURATED ZONE =        -418687.74       UNSATURATED ZONE =         -18824.22
       SATURATED ZONE =         -46384.15         SATURATED ZONE =          -3026.70

 OVERALL BUDGET ERROR =          -1480.37           BUDGET ERROR =            -80.43


  PERCENT DISCREPANCY =             -0.20    PERCENT DISCREPANCY =             -0.16



1
 SUMMARY VOLUMETRIC BUDGET FOR GSFLOW 
 DATE: 10 28 1980              CUMULATIVE TIME STEP:      28
 MODFLOW STRESS PERIOD      2     CURRENT TIME STEP:      28     ITERATIONS:       6

 -----------------------------------------------------------------------------------

   CUMULATIVE VOLUMES               L**3   RATES FOR THIS TIME STEP           L**3/T
   ------------------                      ------------------------

                                     IN                                         IN
                                     --                                         --
        PRECIPITATION =        1070899.96          PRECIPITATION =                  
           STREAMFLOW =                               STREAMFLOW =                  
     GW BOUNDARY FLOW =                         GW BOUNDARY FLOW =                  


                                    OUT                                        OUT
                                    ---                                        ---
   EVAPOTRANSPIRATION =         623789.99     EVAPOTRANSPIRATION =          24681.32
           STREAMFLOW =         199259.16             STREAMFLOW =           7738.07
     GW BOUNDARY FLOW =          18165.84       GW BOUNDARY FLOW =            648.77

   INFLOWS - OUTFLOWS =         229684.97     INFLOWS - OUTFLOWS =         -33068.16
             --------                                   --------

 TOTAL STORAGE CHANGE =         231744.25         STORAGE CHANGE =         -32982.13
       --------------                             --------------
         LAND SURFACE =          20573.21           LAND SURFACE =         -29874.97
            SOIL ZONE =         827663.90              SOIL ZONE =          18415.64
     UNSATURATED ZONE =        -547427.94       UNSATURATED ZONE =         -18025.96
       SATURATED ZONE =         -69064.91         SATURATED ZONE =          -3496.84

 OVERALL BUDGET ERROR =          -2059.28           BUDGET ERROR =            -86.03


  PERCENT DISCREPANCY =             -0.19    PERCENT DISCREPANCY =             -0.26



1
 SUMMARY VOLUMETRIC BUDGET FOR GSFLOW 
 DATE: 11 04 1980              CUMULATIVE TIME STEP:      35
 MODFLOW STRESS PERIOD      2     CURRENT TIME STEP:      35     ITERATIONS:      10

 -----------------------------------------------------------------------------------

   CUMULATIVE VOLUMES               L**3   RATES FOR THIS TIME STEP           L**3/T
   ------------------                      ------------------------

                                     IN                                         IN
                                     --                                         --
        PRECIPITATION =        1070899.96          PRECIPITATION =                  
           STREAMFLOW =                               STREAMFLOW =                  
     GW BOUNDARY FLOW =                         GW BOUNDARY FLOW =                  


                                    OUT                                        OUT
                                    ---                                        ---
   EVAPOTRANSPIRATION =         962090.47     EVAPOTRANSPIRATION =          43314.63
           STREAMFLOW =         250156.54             STREAMFLOW =           6826.00
     GW BOUNDARY FLOW =          22706.59       GW BOUNDARY FLOW =            648.61

   INFLOWS - OUTFLOWS =        -164053.65     INFLOWS - OUTFLOWS =         -50789.23
             --------                                   --------

 TOTAL STORAGE CHANGE =        -161522.98         STORAGE CHANGE =         -50736.24
       --------------                             --------------
         LAND SURFACE =                             LAND SURFACE =                  
            SOIL ZONE =         605869.70              SOIL ZONE =         -29187.29
     UNSATURATED ZONE =        -670902.75       UNSATURATED ZONE =         -17352.81
       SATURATED ZONE =         -96489.93         SATURATED ZONE =          -4196.15

 OVERALL BUDGET ERROR =          -2530.66           BUDGET ERROR =            -52.99


  PERCENT DISCREPANCY =             -0.21    PERCENT DISCREPANCY =             -0.10



1
 SUMMARY VOLUMETRIC BUDGET FOR GSFLOW 
 DATE: 11 11 1980              CUMULATIVE TIME STEP:      42
 MODFLOW STRESS PERIOD      2     CURRENT TIME STEP:      42     ITERATIONS:       7

 -----------------------------------------------------------------------------------

   CUMULATIVE VOLUMES               L**3   RATES FOR THIS TIME STEP           L**3/T
   ------------------                      ------------------------

                                     IN                                         IN
                                     --                                         --
        PRECIPITATION =        1573759.34          PRECIPITATION =         255182.10
           STREAMFLOW =                               STREAMFLOW =                  
     GW BOUNDARY FLOW =                         GW BOUNDARY FLOW =                  


                                    OUT                                        OUT
                                    ---                                        ---
   EVAPOTRANSPIRATION =        1193970.72     EVAPOTRANSPIRATION =          17062.52
           STREAMFLOW =         305329.18             STREAMFLOW =          10510.02
     GW BOUNDARY FLOW =          27247.18       GW BOUNDARY FLOW =            648.82

   INFLOWS - OUTFLOWS =          47212.27     INFLOWS - OUTFLOWS =         226960.74
             --------                                   --------

 TOTAL STORAGE CHANGE =          50280.84         STORAGE CHANGE =         227032.13
       --------------                             --------------
         LAND SURFACE =          76836.74           LAND SURFACE =          76836.74
            SOIL ZONE =         889559.65              SOIL ZONE =         170950.53
     UNSATURATED ZONE =        -789537.10       UNSATURATED ZONE =         -16596.57
       SATURATED ZONE =        -126578.46         SATURATED ZONE =          -4158.57

 OVERALL BUDGET ERROR =          -3068.58           BUDGET ERROR =            -71.39


  PERCENT DISCREPANCY =             -0.19    PERCENT DISCREPANCY =             -0.03



1
 SUMMARY VOLUMETRIC BUDGET FOR GSFLOW 
 DATE: 11 18 1980              CUMULATIVE TIME STEP:      49
 MODFLOW STRESS PERIOD      2     CURRENT TIME STEP:      49     ITERATIONS:       6

 -----------------------------------------------------------------------------------

   CUMULATIVE VOLUMES               L**3   RATES FOR THIS TIME STEP           L**3/T
   ------------------                      ------------------------

                                     IN                                         IN
                                     --                                         --
        PRECIPITATION =        1573759.34          PRECIPITATION =                  
           STREAMFLOW =                               STREAMFLOW =                  
     GW BOUNDARY FLOW =                         GW BOUNDARY FLOW =                  


                                    OUT                                        OUT
                                    ---                                        ---
   EVAPOTRANSPIRATION =        1290971.27     EVAPOTRANSPIRATION =          23195.40
           STREAMFLOW =         365818.85             STREAMFLOW =           8947.88
     GW BOUNDARY FLOW =          31788.76       GW BOUNDARY FLOW =            648.81

   INFLOWS - OUTFLOWS =        -114819.55     INFLOWS - OUTFLOWS =         -32792.10
             --------                                   --------

 TOTAL STORAGE CHANGE =        -111197.18         STORAGE CHANGE =         -32693.75
       --------------                             --------------
         LAND SURFACE =           5398.38           LAND SURFACE =          -7586.23
            SOIL ZONE =         946604.09              SOIL ZONE =          -4261.92
     UNSATURATED ZONE =        -903518.21       UNSATURATED ZONE =         -16026.35
       SATURATED ZONE =        -159681.45         SATURATED ZONE =          -4819.26

 OVERALL BUDGET ERROR =          -3622.37           BUDGET ERROR =            -98.34


  PERCENT DISCREPANCY =             -0.21    PERCENT DISCREPANCY =             -0.30



1
 SUMMARY VOLUMETRIC BUDGET FOR GSFLOW 
 DATE: 11 25 1980              CUMULATIVE TIME STEP:      56
 MODFLOW STRESS PERIOD      2     CURRENT TIME STEP:      56     ITERATIONS:       7

 -----------------------------------------------------------------------------------

   CUMULATIVE VOLUMES               L**3   RATES FOR THIS TIME STEP           L**3/T
   ------------------                      ------------------------

                                     IN                                         IN
                                     --                                         --
        PRECIPITATION =        1648813.76          PRECIPITATION =                  
           STREAMFLOW =                               STREAMFLOW =                  
     GW BOUNDARY FLOW =                         GW BOUNDARY FLOW =                  


                                    OUT                                        OUT
                                    ---                                        ---
   EVAPOTRANSPIRATION =        1380033.42     EVAPOTRANSPIRATION =           9280.00
           STREAMFLOW =         428893.56             STREAMFLOW =           9139.05
     GW BOUNDARY FLOW =          36330.51       GW BOUNDARY FLOW =            648.83

   INFLOWS - OUTFLOWS =        -196443.73     INFLOWS - OUTFLOWS =         -19067.88
             --------                                   --------

 TOTAL STORAGE CHANGE =        -192148.75         STORAGE CHANGE =         -18992.16
       --------------                             --------------
         LAND SURFACE =          53187.47           LAND SURFACE =          -9260.11
            SOIL ZONE =         963862.27              SOIL ZONE =          11117.15
     UNSATURATED ZONE =       -1013221.36       UNSATURATED ZONE =         -15402.06
       SATURATED ZONE =        -195977.12         SATURATED ZONE =          -5447.14

 OVERALL BUDGET ERROR =          -4294.99           BUDGET ERROR =            -75.72


  PERCENT DISCREPANCY =             -0.23    PERCENT DISCREPANCY =             -0.40



1
 SUMMARY VOLUMETRIC BUDGET FOR GSFLOW 
 DATE: 12 02 1980              CUMULATIVE TIME STEP:      63
 MODFLOW STRESS PERIOD      2     CURRENT TIME STEP:      63     ITERATIONS:       7

 -----------------------------------------------------------------------------------

   CUMULATIVE VOLUMES               L**3   RATES FOR THIS TIME STEP           L**3/T
   ------------------                      ------------------------

                                     IN                                         IN
                                     --                                         --
        PRECIPITATION =        2076620.74          PRECIPITATION =                  
           STREAMFLOW =                               STREAMFLOW =                  
     GW BOUNDARY FLOW =                         GW BOUNDARY FLOW =                  


                                    OUT                                        OUT
                                    ---                                        ---
   EVAPOTRANSPIRATION =        1590648.91     EVAPOTRANSPIRATION =          35186.72
           STREAMFLOW =         502987.77             STREAMFLOW =          12898.21
     GW BOUNDARY FLOW =          40873.22       GW BOUNDARY FLOW =            649.19

   INFLOWS - OUTFLOWS =         -57889.17     INFLOWS - OUTFLOWS =         -48734.12
             --------                                   --------

 TOTAL STORAGE CHANGE =         -53039.66         STORAGE CHANGE =         -48665.83
       --------------                             --------------
         LAND SURFACE =         139443.43           LAND SURFACE =         -82002.01
            SOIL ZONE =        1158051.88              SOIL ZONE =          52032.96
     UNSATURATED ZONE =       -1116579.08       UNSATURATED ZONE =         -13682.06
       SATURATED ZONE =        -233955.89         SATURATED ZONE =          -5014.73

 OVERALL BUDGET ERROR =          -4849.51           BUDGET ERROR =            -68.28


  PERCENT DISCREPANCY =             -0.23    PERCENT DISCREPANCY =             -0.14



1
 SUMMARY VOLUMETRIC BUDGET FOR GSFLOW 
 DATE: 12 09 1980              CUMULATIVE TIME STEP:      70
 MODFLOW STRESS PERIOD      2     CURRENT TIME STEP:      70     ITERATIONS:       7

 -----------------------------------------------------------------------------------

   CUMULATIVE VOLUMES               L**3   RATES FOR THIS TIME STEP           L**3/T
   ------------------                      ------------------------

                                     IN                                         IN
                                     --                                         --
        PRECIPITATION =        4284363.13          PRECIPITATION =                  
           STREAMFLOW =                               STREAMFLOW =                  
     GW BOUNDARY FLOW =                         GW BOUNDARY FLOW =                  


                                    OUT                                        OUT
                                    ---                                        ---
   EVAPOTRANSPIRATION =        1617204.40     EVAPOTRANSPIRATION =           4180.71
           STREAMFLOW =         588548.23             STREAMFLOW =          12698.59
     GW BOUNDARY FLOW =          45418.22       GW BOUNDARY FLOW =            649.39

   INFLOWS - OUTFLOWS =        2033192.28     INFLOWS - OUTFLOWS =         -17528.69
             --------                                   --------

 TOTAL STORAGE CHANGE =        2038540.64         STORAGE CHANGE =         -17449.82
       --------------                             --------------
         LAND SURFACE =        2319000.21           LAND SURFACE =          -4180.71
            SOIL ZONE =        1209361.42              SOIL ZONE =           6887.35
     UNSATURATED ZONE =       -1216086.93       UNSATURATED ZONE =         -14239.30
       SATURATED ZONE =        -273734.07         SATURATED ZONE =          -5917.16

 OVERALL BUDGET ERROR =          -5348.36           BUDGET ERROR =            -78.87


  PERCENT DISCREPANCY =             -0.12    PERCENT DISCREPANCY =             -0.45



1
 SUMMARY VOLUMETRIC BUDGET FOR GSFLOW 
 DATE: 12 16 1980              CUMULATIVE TIME STEP:      77
 MODFLOW STRESS PERIOD      2     CURRENT TIME STEP:      77     ITERATIONS:       7

 -----------------------------------------------------------------------------------

   CUMULATIVE VOLUMES               L**3   RATES FOR THIS TIME STEP           L**3/T
   ------------------                      ------------------------

                                     IN                                         IN
                                     --                                         --
        PRECIPITATION =        4284363.13          PRECIPITATION =                  
           STREAMFLOW =                               STREAMFLOW =                  
     GW BOUNDARY FLOW =                         GW BOUNDARY FLOW =                  


                                    OUT                                        OUT
                                    ---                                        ---
   EVAPOTRANSPIRATION =        1768300.20     EVAPOTRANSPIRATION =          35036.08
           STREAMFLOW =         695517.89             STREAMFLOW =          22582.03
     GW BOUNDARY FLOW =          49965.12       GW BOUNDARY FLOW =            649.99

   INFLOWS - OUTFLOWS =        1770579.91     INFLOWS - OUTFLOWS =         -58268.09
             --------                                   --------

 TOTAL STORAGE CHANGE =        1776430.59         STORAGE CHANGE =         -58197.79
       --------------                             --------------
         LAND SURFACE =        1981773.90           LAND SURFACE =        -138704.95
            SOIL ZONE =        1416264.67              SOIL ZONE =          94788.88
     UNSATURATED ZONE =       -1307284.01       UNSATURATED ZONE =          -9696.70
       SATURATED ZONE =        -314323.97         SATURATED ZONE =          -4585.02

 OVERALL BUDGET ERROR =          -5850.68           BUDGET ERROR =            -70.31


  PERCENT DISCREPANCY =             -0.14    PERCENT DISCREPANCY =             -0.12



1
 SUMMARY VOLUMETRIC BUDGET FOR GSFLOW 
 DATE: 12 23 1980              CUMULATIVE TIME STEP:      84
 MODFLOW STRESS PERIOD      2     CURRENT TIME STEP:      84     ITERATIONS:       9

 -----------------------------------------------------------------------------------

   CUMULATIVE VOLUMES               L**3   RATES FOR THIS TIME STEP           L**3/T
   ------------------                      ------------------------

                                     IN                                         IN
                                     --                                         --
        PRECIPITATION =        4516755.31          PRECIPITATION =                  
           STREAMFLOW =                               STREAMFLOW =                  
     GW BOUNDARY FLOW =                         GW BOUNDARY FLOW =                  


                                    OUT                                        OUT
                                    ---                                        ---
   EVAPOTRANSPIRATION =        1971010.48     EVAPOTRANSPIRATION =          34714.82
           STREAMFLOW =         914885.49             STREAMFLOW =          30082.20
     GW BOUNDARY FLOW =          54524.34       GW BOUNDARY FLOW =            651.84

   INFLOWS - OUTFLOWS =        1576335.00     INFLOWS - OUTFLOWS =         -65448.86
             --------                                   --------

 TOTAL STORAGE CHANGE =        1582499.51         STORAGE CHANGE =         -65408.43
       --------------                             --------------
         LAND SURFACE =        1331470.55           LAND SURFACE =         -52543.77
            SOIL ZONE =        1948669.57              SOIL ZONE =          -1694.39
     UNSATURATED ZONE =       -1354681.93       UNSATURATED ZONE =          -6624.86
       SATURATED ZONE =        -342958.68         SATURATED ZONE =          -4545.41

 OVERALL BUDGET ERROR =          -6164.51           BUDGET ERROR =            -40.44


  PERCENT DISCREPANCY =             -0.14    PERCENT DISCREPANCY =             -0.06



1
 SUMMARY VOLUMETRIC BUDGET FOR GSFLOW 
 DATE: 12 30 1980              CUMULATIVE TIME STEP:      91
 MODFLOW STRESS PERIOD      2     CURRENT TIME STEP:      91     ITERATIONS:      10

 -----------------------------------------------------------------------------------

   CUMULATIVE VOLUMES               L**3   RATES FOR THIS TIME STEP           L**3/T
   ------------------                      ------------------------

                                     IN                                         IN
                                     --                                         --
        PRECIPITATION =        4516755.31          PRECIPITATION =                  
           STREAMFLOW =                               STREAMFLOW =                  
     GW BOUNDARY FLOW =                         GW BOUNDARY FLOW =                  


                                    OUT                                        OUT
                                    ---                                        ---
   EVAPOTRANSPIRATION =        2293573.03     EVAPOTRANSPIRATION =          42509.72
           STREAMFLOW =        1159801.84             STREAMFLOW =          27625.43
     GW BOUNDARY FLOW =          59090.76       GW BOUNDARY FLOW =            652.36

   INFLOWS - OUTFLOWS =        1004289.69     INFLOWS - OUTFLOWS =         -70787.52
             --------                                   --------

 TOTAL STORAGE CHANGE =        1010649.77         STORAGE CHANGE =         -70762.69
       --------------                             --------------
         LAND SURFACE =         529446.97           LAND SURFACE =         -41358.17
            SOIL ZONE =        2220833.45              SOIL ZONE =         -21326.63
     UNSATURATED ZONE =       -1369972.22       UNSATURATED ZONE =          -3628.58
       SATURATED ZONE =        -369658.44         SATURATED ZONE =          -4449.31

 OVERALL BUDGET ERROR =          -6360.08           BUDGET ERROR =            -24.83


  PERCENT DISCREPANCY =             -0.14    PERCENT DISCREPANCY =             -0.04



1
 SUMMARY VOLUMETRIC BUDGET FOR GSFLOW 
 DATE: 01 06 1981              CUMULATIVE TIME STEP:      98
 MODFLOW STRESS PERIOD      2     CURRENT TIME STEP:      98     ITERATIONS:       8

 -----------------------------------------------------------------------------------

   CUMULATIVE VOLUMES               L**3   RATES FOR THIS TIME STEP           L**3/T
   ------------------                      ------------------------

                                     IN                                         IN
                                     --                                         --
        PRECIPITATION =        5004445.82          PRECIPITATION =                  
           STREAMFLOW =                               STREAMFLOW =                  
     GW BOUNDARY FLOW =                         GW BOUNDARY FLOW =                  


                                    OUT                                        OUT
                                    ---                                        ---
   EVAPOTRANSPIRATION =        2505989.80     EVAPOTRANSPIRATION =          21276.31
           STREAMFLOW =        1310070.24             STREAMFLOW =          20286.64
     GW BOUNDARY FLOW =          63651.70       GW BOUNDARY FLOW =            651.10

   INFLOWS - OUTFLOWS =        1124734.08     INFLOWS - OUTFLOWS =         -42214.06
             --------                                   --------

 TOTAL STORAGE CHANGE =        1131292.42         STORAGE CHANGE =         -42172.34
       --------------                             --------------
         LAND SURFACE =         783105.34           LAND SURFACE =         -28174.19
            SOIL ZONE =        2194680.52              SOIL ZONE =           3303.27
     UNSATURATED ZONE =       -1437369.89       UNSATURATED ZONE =         -11345.95
       SATURATED ZONE =        -409123.55         SATURATED ZONE =          -5955.48

 OVERALL BUDGET ERROR =          -6558.35           BUDGET ERROR =            -41.72


  PERCENT DISCREPANCY =             -0.13    PERCENT DISCREPANCY =             -0.10



1
 SUMMARY VOLUMETRIC BUDGET FOR GSFLOW 
 DATE: 01 13 1981              CUMULATIVE TIME STEP:     105
 MODFLOW STRESS PERIOD      2     CURRENT TIME STEP:     105     ITERATIONS:       7

 -----------------------------------------------------------------------------------

   CUMULATIVE VOLUMES               L**3   RATES FOR THIS TIME STEP           L**3/T
   ------------------                      ------------------------

                                     IN                                         IN
                                     --                                         --
        PRECIPITATION =        5004445.82          PRECIPITATION =                  
           STREAMFLOW =                               STREAMFLOW =                  
     GW BOUNDARY FLOW =                         GW BOUNDARY FLOW =                  


                                    OUT                                        OUT
                                    ---                                        ---
   EVAPOTRANSPIRATION =        2702987.53     EVAPOTRANSPIRATION =          40639.08
           STREAMFLOW =        1457299.32             STREAMFLOW =          20406.63
     GW BOUNDARY FLOW =          68208.35       GW BOUNDARY FLOW =            650.82

   INFLOWS - OUTFLOWS =         775950.61     INFLOWS - OUTFLOWS =         -61696.54
             --------                                   --------

 TOTAL STORAGE CHANGE =         782904.72         STORAGE CHANGE =         -61640.82
       --------------                             --------------
         LAND SURFACE =         556998.15           LAND SURFACE =         -38369.48
            SOIL ZONE =        2181985.54              SOIL ZONE =          -7985.52
     UNSATURATED ZONE =       -1503145.88       UNSATURATED ZONE =          -8737.19
       SATURATED ZONE =        -452933.09         SATURATED ZONE =          -6548.63

 OVERALL BUDGET ERROR =          -6954.11           BUDGET ERROR =            -55.72


  PERCENT DISCREPANCY =             -0.14    PERCENT DISCREPANCY =             -0.09



1
 SUMMARY VOLUMETRIC BUDGET FOR GSFLOW 
 DATE: 01 20 1981              CUMULATIVE TIME STEP:     112
 MODFLOW STRESS PERIOD      2     CURRENT TIME STEP:     112     ITERATIONS:       8

 -----------------------------------------------------------------------------------

   CUMULATIVE VOLUMES               L**3   RATES FOR THIS TIME STEP           L**3/T
   ------------------                      ------------------------

                                     IN                                         IN
                                     --                                         --
        PRECIPITATION =        5170468.48          PRECIPITATION =          41503.16
           STREAMFLOW =                               STREAMFLOW =                  
     GW BOUNDARY FLOW =                         GW BOUNDARY FLOW =                  


                                    OUT                                        OUT
                                    ---                                        ---
   EVAPOTRANSPIRATION =        2994319.15     EVAPOTRANSPIRATION =          53689.72
           STREAMFLOW =        1598730.36             STREAMFLOW =          19729.31
     GW BOUNDARY FLOW =          72763.06       GW BOUNDARY FLOW =            650.60

   INFLOWS - OUTFLOWS =         504655.91     INFLOWS - OUTFLOWS =         -32566.46
             --------                                   --------

 TOTAL STORAGE CHANGE =         511950.25         STORAGE CHANGE =         -32522.10
       --------------                             --------------
         LAND SURFACE =         392560.19           LAND SURFACE =           1262.98
            SOIL ZONE =        2158053.73              SOIL ZONE =         -24323.46
     UNSATURATED ZONE =       -1539190.92       UNSATURATED ZONE =          -2612.04
       SATURATED ZONE =        -499472.75         SATURATED ZONE =          -6849.58

 OVERALL BUDGET ERROR =          -7294.34           BUDGET ERROR =            -44.36


  PERCENT DISCREPANCY =             -0.14    PERCENT DISCREPANCY =             -0.06



1
 SUMMARY VOLUMETRIC BUDGET FOR GSFLOW 
 DATE: 01 27 1981              CUMULATIVE TIME STEP:     119
 MODFLOW STRESS PERIOD      2     CURRENT TIME STEP:     119     ITERATIONS:       8

 -----------------------------------------------------------------------------------

   CUMULATIVE VOLUMES               L**3   RATES FOR THIS TIME STEP           L**3/T
   ------------------                      ------------------------

                                     IN                                         IN
                                     --                                         --
        PRECIPITATION =        8646542.90          PRECIPITATION =        2936504.96
           STREAMFLOW =                               STREAMFLOW =                  
     GW BOUNDARY FLOW =                         GW BOUNDARY FLOW =                  


                                    OUT                                        OUT
                                    ---                                        ---
   EVAPOTRANSPIRATION =        3224803.92     EVAPOTRANSPIRATION =          12593.32
           STREAMFLOW =        1734121.07             STREAMFLOW =          17944.15
     GW BOUNDARY FLOW =          77316.37       GW BOUNDARY FLOW =            650.32

   INFLOWS - OUTFLOWS =        3610301.54     INFLOWS - OUTFLOWS =        2905317.17
             --------                                   --------

 TOTAL STORAGE CHANGE =        3617811.04         STORAGE CHANGE =        2905350.89
       --------------                             --------------
         LAND SURFACE =        3531533.77           LAND SURFACE =        2923911.72
            SOIL ZONE =        2179849.24              SOIL ZONE =          -4865.20
     UNSATURATED ZONE =       -1547284.53       UNSATURATED ZONE =          -6512.53
       SATURATED ZONE =        -546287.43         SATURATED ZONE =          -7183.10

 OVERALL BUDGET ERROR =          -7509.51           BUDGET ERROR =            -33.72


  PERCENT DISCREPANCY =             -0.09    PERCENT DISCREPANCY =             -0.00



1
 SUMMARY VOLUMETRIC BUDGET FOR GSFLOW 
 DATE: 02 03 1981              CUMULATIVE TIME STEP:     126
 MODFLOW STRESS PERIOD      2     CURRENT TIME STEP:     126     ITERATIONS:       9

 -----------------------------------------------------------------------------------

   CUMULATIVE VOLUMES               L**3   RATES FOR THIS TIME STEP           L**3/T
   ------------------                      ------------------------

                                     IN                                         IN
                                     --                                         --
        PRECIPITATION =        1.1739D+07          PRECIPITATION =                  
           STREAMFLOW =                               STREAMFLOW =                  
     GW BOUNDARY FLOW =                         GW BOUNDARY FLOW =                  


                                    OUT                                        OUT
                                    ---                                        ---
   EVAPOTRANSPIRATION =        3262152.40     EVAPOTRANSPIRATION =           8130.85
           STREAMFLOW =        1858202.11             STREAMFLOW =          17764.58
     GW BOUNDARY FLOW =          81867.95       GW BOUNDARY FLOW =            650.21

   INFLOWS - OUTFLOWS =        6536475.31     INFLOWS - OUTFLOWS =         -26545.64
             --------                                   --------

 TOTAL STORAGE CHANGE =        6544286.96         STORAGE CHANGE =         -26518.07
       --------------                             --------------
         LAND SURFACE =        6586340.17           LAND SURFACE =          -8130.85
            SOIL ZONE =        2175997.64              SOIL ZONE =            713.70
     UNSATURATED ZONE =       -1618366.00       UNSATURATED ZONE =         -11204.42
       SATURATED ZONE =        -599684.85         SATURATED ZONE =          -7896.50

 OVERALL BUDGET ERROR =          -7811.66           BUDGET ERROR =            -27.57


  PERCENT DISCREPANCY =             -0.07    PERCENT DISCREPANCY =             -0.10



1
 SUMMARY VOLUMETRIC BUDGET FOR GSFLOW 
 DATE: 02 10 1981              CUMULATIVE TIME STEP:     133
 MODFLOW STRESS PERIOD      2     CURRENT TIME STEP:     133     ITERATIONS:       8

 -----------------------------------------------------------------------------------

   CUMULATIVE VOLUMES               L**3   RATES FOR THIS TIME STEP           L**3/T
   ------------------                      ------------------------

                                     IN                                         IN
                                     --                                         --
        PRECIPITATION =        1.1838D+07          PRECIPITATION =                  
           STREAMFLOW =                               STREAMFLOW =                  
     GW BOUNDARY FLOW =                         GW BOUNDARY FLOW =                  


                                    OUT                                        OUT
                                    ---                                        ---
   EVAPOTRANSPIRATION =        3395954.76     EVAPOTRANSPIRATION =          34657.17
           STREAMFLOW =        1983272.90             STREAMFLOW =          17924.39
     GW BOUNDARY FLOW =          86419.46       GW BOUNDARY FLOW =            650.21

   INFLOWS - OUTFLOWS =        6372616.12     INFLOWS - OUTFLOWS =         -53231.78
             --------                                   --------

 TOTAL STORAGE CHANGE =        6380751.22         STORAGE CHANGE =         -53186.00
       --------------                             --------------
         LAND SURFACE =        6552103.28           LAND SURFACE =         -34657.17
            SOIL ZONE =        2180950.96              SOIL ZONE =            620.34
     UNSATURATED ZONE =       -1695081.74       UNSATURATED ZONE =         -10658.28
       SATURATED ZONE =        -657221.28         SATURATED ZONE =          -8490.88

 OVERALL BUDGET ERROR =          -8135.10           BUDGET ERROR =            -45.78


  PERCENT DISCREPANCY =             -0.07    PERCENT DISCREPANCY =             -0.09



1
 SUMMARY VOLUMETRIC BUDGET FOR GSFLOW 
 DATE: 02 17 1981              CUMULATIVE TIME STEP:     140
 MODFLOW STRESS PERIOD      2     CURRENT TIME STEP:     140     ITERATIONS:      14

 -----------------------------------------------------------------------------------

   CUMULATIVE VOLUMES               L**3   RATES FOR THIS TIME STEP           L**3/T
   ------------------                      ------------------------

                                     IN                                         IN
                                     --                                         --
        PRECIPITATION =        1.2765D+07          PRECIPITATION =          68928.68
           STREAMFLOW =                               STREAMFLOW =                  
     GW BOUNDARY FLOW =                         GW BOUNDARY FLOW =                  


                                    OUT                                        OUT
                                    ---                                        ---
   EVAPOTRANSPIRATION =        3739155.12     EVAPOTRANSPIRATION =          68126.97
           STREAMFLOW =        2507255.58             STREAMFLOW =         124815.05
     GW BOUNDARY FLOW =          90992.22       GW BOUNDARY FLOW =            656.72

   INFLOWS - OUTFLOWS =        6427577.75     INFLOWS - OUTFLOWS =        -124670.06
             --------                                   --------

 TOTAL STORAGE CHANGE =        6436015.89         STORAGE CHANGE =        -124649.99
       --------------                             --------------
         LAND SURFACE =        5604894.42           LAND SURFACE =        -287595.36
            SOIL ZONE =        2962772.57              SOIL ZONE =          82395.93
     UNSATURATED ZONE =       -1455496.12       UNSATURATED ZONE =          78466.67
       SATURATED ZONE =        -676154.99         SATURATED ZONE =           2082.76

 OVERALL BUDGET ERROR =          -8438.13           BUDGET ERROR =            -20.07


  PERCENT DISCREPANCY =             -0.07    PERCENT DISCREPANCY =             -0.01



1
 SUMMARY VOLUMETRIC BUDGET FOR GSFLOW 
 DATE: 02 24 1981              CUMULATIVE TIME STEP:     147
 MODFLOW STRESS PERIOD      2     CURRENT TIME STEP:     147     ITERATIONS:      14

 -----------------------------------------------------------------------------------

   CUMULATIVE VOLUMES               L**3   RATES FOR THIS TIME STEP           L**3/T
   ------------------                      ------------------------

                                     IN                                         IN
                                     --                                         --
        PRECIPITATION =        1.3179D+07          PRECIPITATION =         344647.71
           STREAMFLOW =                               STREAMFLOW =                  
     GW BOUNDARY FLOW =                         GW BOUNDARY FLOW =                  


                                    OUT                                        OUT
                                    ---                                        ---
   EVAPOTRANSPIRATION =        4088042.76     EVAPOTRANSPIRATION =          19832.91
           STREAMFLOW =        3094609.74             STREAMFLOW =          53170.55
     GW BOUNDARY FLOW =          95587.32       GW BOUNDARY FLOW =            655.43

   INFLOWS - OUTFLOWS =        5900318.63     INFLOWS - OUTFLOWS =         270988.82
             --------                                   --------

 TOTAL STORAGE CHANGE =        5908715.66         STORAGE CHANGE =         270978.30
       --------------                             --------------
         LAND SURFACE =        4925109.86           LAND SURFACE =         300251.61
            SOIL ZONE =        2710056.30              SOIL ZONE =         -63440.80
     UNSATURATED ZONE =       -1075242.38       UNSATURATED ZONE =          31295.10
       SATURATED ZONE =        -651208.12         SATURATED ZONE =           2872.39

 OVERALL BUDGET ERROR =          -8397.03           BUDGET ERROR =             10.52


  PERCENT DISCREPANCY =             -0.06    PERCENT DISCREPANCY =              0.00



1
 SUMMARY VOLUMETRIC BUDGET FOR GSFLOW 
 DATE: 03 03 1981              CUMULATIVE TIME STEP:     154
 MODFLOW STRESS PERIOD      2     CURRENT TIME STEP:     154     ITERATIONS:      11

 -----------------------------------------------------------------------------------

   CUMULATIVE VOLUMES               L**3   RATES FOR THIS TIME STEP           L**3/T
   ------------------                      ------------------------

                                     IN                                         IN
                                     --                                         --
        PRECIPITATION =        1.3447D+07          PRECIPITATION =                  
           STREAMFLOW =                               STREAMFLOW =                  
     GW BOUNDARY FLOW =                         GW BOUNDARY FLOW =                  


                                    OUT                                        OUT
                                    ---                                        ---
   EVAPOTRANSPIRATION =        4250536.51     EVAPOTRANSPIRATION =          44390.12
           STREAMFLOW =        3320771.99             STREAMFLOW =          27378.12
     GW BOUNDARY FLOW =         100160.82       GW BOUNDARY FLOW =            652.32

   INFLOWS - OUTFLOWS =        5775149.47     INFLOWS - OUTFLOWS =         -72420.55
             --------                                   --------

 TOTAL STORAGE CHANGE =        5783460.63         STORAGE CHANGE =         -72441.44
       --------------                             --------------
         LAND SURFACE =        5011972.56           LAND SURFACE =         -61722.17
            SOIL ZONE =        2487191.39              SOIL ZONE =           -193.75
     UNSATURATED ZONE =       -1061409.00       UNSATURATED ZONE =          -8362.35
       SATURATED ZONE =        -654294.31         SATURATED ZONE =          -2163.17

 OVERALL BUDGET ERROR =          -8311.16           BUDGET ERROR =             20.88


  PERCENT DISCREPANCY =             -0.06    PERCENT DISCREPANCY =              0.03



1
 SUMMARY VOLUMETRIC BUDGET FOR GSFLOW 
 DATE: 03 10 1981              CUMULATIVE TIME STEP:     161
 MODFLOW STRESS PERIOD      2     CURRENT TIME STEP:     161     ITERATIONS:      11

 -----------------------------------------------------------------------------------

   CUMULATIVE VOLUMES               L**3   RATES FOR THIS TIME STEP           L**3/T
   ------------------                      ------------------------

                                     IN                                         IN
                                     --                                         --
        PRECIPITATION =        1.3493D+07          PRECIPITATION =                  
           STREAMFLOW =                               STREAMFLOW =                  
     GW BOUNDARY FLOW =                         GW BOUNDARY FLOW =                  


                                    OUT                                        OUT
                                    ---                                        ---
   EVAPOTRANSPIRATION =        4564181.31     EVAPOTRANSPIRATION =          62828.56
           STREAMFLOW =        3554042.80             STREAMFLOW =          43688.62
     GW BOUNDARY FLOW =         104726.85       GW BOUNDARY FLOW =            652.96

   INFLOWS - OUTFLOWS =        5270003.55     INFLOWS - OUTFLOWS =        -107170.14
             --------                                   --------

 TOTAL STORAGE CHANGE =        5278248.70         STORAGE CHANGE =        -107174.95
       --------------                             --------------
         LAND SURFACE =        4369723.81           LAND SURFACE =        -162552.80
            SOIL ZONE =        2609746.20              SOIL ZONE =          33788.63
     UNSATURATED ZONE =       -1034231.20       UNSATURATED ZONE =          22001.97
       SATURATED ZONE =        -666990.11         SATURATED ZONE =           -412.76

 OVERALL BUDGET ERROR =          -8245.15           BUDGET ERROR =              4.80


  PERCENT DISCREPANCY =             -0.06    PERCENT DISCREPANCY =              0.00



1
 SUMMARY VOLUMETRIC BUDGET FOR GSFLOW 
 DATE: 03 17 1981              CUMULATIVE TIME STEP:     168
 MODFLOW STRESS PERIOD      2     CURRENT TIME STEP:     168     ITERATIONS:       9

 -----------------------------------------------------------------------------------

   CUMULATIVE VOLUMES               L**3   RATES FOR THIS TIME STEP           L**3/T
   ------------------                      ------------------------

                                     IN                                         IN
                                     --                                         --
        PRECIPITATION =        1.3745D+07          PRECIPITATION =                  
           STREAMFLOW =                               STREAMFLOW =                  
     GW BOUNDARY FLOW =                         GW BOUNDARY FLOW =                  


                                    OUT                                        OUT
                                    ---                                        ---
   EVAPOTRANSPIRATION =        4920410.77     EVAPOTRANSPIRATION =          39557.19
           STREAMFLOW =        3784372.78             STREAMFLOW =          24098.70
     GW BOUNDARY FLOW =         109294.66       GW BOUNDARY FLOW =            651.98

   INFLOWS - OUTFLOWS =        4930424.62     INFLOWS - OUTFLOWS =         -64307.87
             --------                                   --------

 TOTAL STORAGE CHANGE =        4938613.46         STORAGE CHANGE =         -64306.54
       --------------                             --------------
         LAND SURFACE =        4198119.41           LAND SURFACE =         -39206.25
            SOIL ZONE =        2433285.62              SOIL ZONE =          -5039.73
     UNSATURATED ZONE =       -1009868.93       UNSATURATED ZONE =         -15704.80
       SATURATED ZONE =        -682922.64         SATURATED ZONE =          -4355.77

 OVERALL BUDGET ERROR =          -8188.84           BUDGET ERROR =             -1.33


  PERCENT DISCREPANCY =             -0.06    PERCENT DISCREPANCY =             -0.00



1
 SUMMARY VOLUMETRIC BUDGET FOR GSFLOW 
 DATE: 03 24 1981              CUMULATIVE TIME STEP:     175
 MODFLOW STRESS PERIOD      2     CURRENT TIME STEP:     175     ITERATIONS:       9

 -----------------------------------------------------------------------------------

   CUMULATIVE VOLUMES               L**3   RATES FOR THIS TIME STEP           L**3/T
   ------------------                      ------------------------

                                     IN                                         IN
                                     --                                         --
        PRECIPITATION =        1.4367D+07          PRECIPITATION =                  
           STREAMFLOW =                               STREAMFLOW =                  
     GW BOUNDARY FLOW =                         GW BOUNDARY FLOW =                  


                                    OUT                                        OUT
                                    ---                                        ---
   EVAPOTRANSPIRATION =        5273483.21     EVAPOTRANSPIRATION =          85696.82
           STREAMFLOW =        3951732.18             STREAMFLOW =          25416.50
     GW BOUNDARY FLOW =         113854.69       GW BOUNDARY FLOW =            651.32

   INFLOWS - OUTFLOWS =        5027686.16     INFLOWS - OUTFLOWS =        -111764.64
             --------                                   --------

 TOTAL STORAGE CHANGE =        5035915.76         STORAGE CHANGE =        -111752.45
       --------------                             --------------
         LAND SURFACE =        4528959.87           LAND SURFACE =         -63588.51
            SOIL ZONE =        2318234.59              SOIL ZONE =         -36222.63
     UNSATURATED ZONE =       -1092440.93       UNSATURATED ZONE =          -6587.70
       SATURATED ZONE =        -718837.77         SATURATED ZONE =          -5353.61

 OVERALL BUDGET ERROR =          -8229.60           BUDGET ERROR =            -12.19


  PERCENT DISCREPANCY =             -0.06    PERCENT DISCREPANCY =             -0.01



1
 SUMMARY VOLUMETRIC BUDGET FOR GSFLOW 
 DATE: 03 31 1981              CUMULATIVE TIME STEP:     182
 MODFLOW STRESS PERIOD      2     CURRENT TIME STEP:     182     ITERATIONS:      12

 -----------------------------------------------------------------------------------

   CUMULATIVE VOLUMES               L**3   RATES FOR THIS TIME STEP           L**3/T
   ------------------                      ------------------------

                                     IN                                         IN
                                     --                                         --
        PRECIPITATION =        1.5777D+07          PRECIPITATION =                  
           STREAMFLOW =                               STREAMFLOW =                  
     GW BOUNDARY FLOW =                         GW BOUNDARY FLOW =                  


                                    OUT                                        OUT
                                    ---                                        ---
   EVAPOTRANSPIRATION =        5698992.56     EVAPOTRANSPIRATION =          55421.24
           STREAMFLOW =        4403814.17             STREAMFLOW =          33571.71
     GW BOUNDARY FLOW =         118433.52       GW BOUNDARY FLOW =            653.21

   INFLOWS - OUTFLOWS =        5555525.94     INFLOWS - OUTFLOWS =         -89646.16
             --------                                   --------

 TOTAL STORAGE CHANGE =        5563702.87         STORAGE CHANGE =         -89659.47
       --------------                             --------------
         LAND SURFACE =        4697103.34           LAND SURFACE =         -55743.36
            SOIL ZONE =        2494685.85              SOIL ZONE =         -31856.44
     UNSATURATED ZONE =        -907945.33       UNSATURATED ZONE =           -186.50
       SATURATED ZONE =        -720140.99         SATURATED ZONE =          -1873.17

 OVERALL BUDGET ERROR =          -8176.93           BUDGET ERROR =             13.30


  PERCENT DISCREPANCY =             -0.05    PERCENT DISCREPANCY =              0.01



1
 SUMMARY VOLUMETRIC BUDGET FOR GSFLOW 
 DATE: 04 07 1981              CUMULATIVE TIME STEP:     189
 MODFLOW STRESS PERIOD      2     CURRENT TIME STEP:     189     ITERATIONS:      10

 -----------------------------------------------------------------------------------

   CUMULATIVE VOLUMES               L**3   RATES FOR THIS TIME STEP           L**3/T
   ------------------                      ------------------------

                                     IN                                         IN
                                     --                                         --
        PRECIPITATION =        1.6121D+07          PRECIPITATION =                  
           STREAMFLOW =                               STREAMFLOW =                  
     GW BOUNDARY FLOW =                         GW BOUNDARY FLOW =                  


                                    OUT                                        OUT
                                    ---                                        ---
   EVAPOTRANSPIRATION =        6344597.15     EVAPOTRANSPIRATION =         106275.95
           STREAMFLOW =        4701373.90             STREAMFLOW =          42354.62
     GW BOUNDARY FLOW =         123007.03       GW BOUNDARY FLOW =            653.61

   INFLOWS - OUTFLOWS =        4952505.08     INFLOWS - OUTFLOWS =        -149284.17
             --------                                   --------

 TOTAL STORAGE CHANGE =        4960586.99         STORAGE CHANGE =        -149306.17
       --------------                             --------------
         LAND SURFACE =        4078016.24           LAND SURFACE =        -145758.59
            SOIL ZONE =        2453558.12              SOIL ZONE =         -13405.64
     UNSATURATED ZONE =        -845147.17       UNSATURATED ZONE =          10305.33
       SATURATED ZONE =        -725840.20         SATURATED ZONE =           -447.26

 OVERALL BUDGET ERROR =          -8081.91           BUDGET ERROR =             21.99


  PERCENT DISCREPANCY =             -0.05    PERCENT DISCREPANCY =              0.01



1
 SUMMARY VOLUMETRIC BUDGET FOR GSFLOW 
 DATE: 04 14 1981              CUMULATIVE TIME STEP:     196
 MODFLOW STRESS PERIOD      2     CURRENT TIME STEP:     196     ITERATIONS:      12

 -----------------------------------------------------------------------------------

   CUMULATIVE VOLUMES               L**3   RATES FOR THIS TIME STEP           L**3/T
   ------------------                      ------------------------

                                     IN                                         IN
                                     --                                         --
        PRECIPITATION =        1.6121D+07          PRECIPITATION =                  
           STREAMFLOW =                               STREAMFLOW =                  
     GW BOUNDARY FLOW =                         GW BOUNDARY FLOW =                  


                                    OUT                                        OUT
                                    ---                                        ---
   EVAPOTRANSPIRATION =        7271628.19     EVAPOTRANSPIRATION =         190847.08
           STREAMFLOW =        5027121.30             STREAMFLOW =          55478.82
     GW BOUNDARY FLOW =         127581.70       GW BOUNDARY FLOW =            653.53

   INFLOWS - OUTFLOWS =        3695151.96     INFLOWS - OUTFLOWS =        -246979.44
             --------                                   --------

 TOTAL STORAGE CHANGE =        3703114.75         STORAGE CHANGE =        -246994.77
       --------------                             --------------
         LAND SURFACE =        2766600.61           LAND SURFACE =        -261667.29
            SOIL ZONE =        2411537.00              SOIL ZONE =          -7012.30
     UNSATURATED ZONE =        -749662.44       UNSATURATED ZONE =          20263.13
       SATURATED ZONE =        -725360.42         SATURATED ZONE =           1421.68

 OVERALL BUDGET ERROR =          -7962.80           BUDGET ERROR =             15.34


  PERCENT DISCREPANCY =             -0.05    PERCENT DISCREPANCY =              0.01



1
 SUMMARY VOLUMETRIC BUDGET FOR GSFLOW 
 DATE: 04 21 1981              CUMULATIVE TIME STEP:     203
 MODFLOW STRESS PERIOD      2     CURRENT TIME STEP:     203     ITERATIONS:      13

 -----------------------------------------------------------------------------------

   CUMULATIVE VOLUMES               L**3   RATES FOR THIS TIME STEP           L**3/T
   ------------------                      ------------------------

                                     IN                                         IN
                                     --                                         --
        PRECIPITATION =        1.6310D+07          PRECIPITATION =                  
           STREAMFLOW =                               STREAMFLOW =                  
     GW BOUNDARY FLOW =                         GW BOUNDARY FLOW =                  


                                    OUT                                        OUT
                                    ---                                        ---
   EVAPOTRANSPIRATION =        8363755.64     EVAPOTRANSPIRATION =         161807.92
           STREAMFLOW =        5369589.47             STREAMFLOW =          46309.50
     GW BOUNDARY FLOW =         132152.55       GW BOUNDARY FLOW =            652.59

   INFLOWS - OUTFLOWS =        2444759.75     INFLOWS - OUTFLOWS =        -208770.00
             --------                                   --------

 TOTAL STORAGE CHANGE =        2452617.62         STORAGE CHANGE =        -208795.67
       --------------                             --------------
         LAND SURFACE =        1526141.71           LAND SURFACE =        -128414.83
            SOIL ZONE =        2261519.58              SOIL ZONE =        -101009.31
     UNSATURATED ZONE =        -621823.11       UNSATURATED ZONE =          18287.06
       SATURATED ZONE =        -713220.55         SATURATED ZONE =           2341.41

 OVERALL BUDGET ERROR =          -7857.87           BUDGET ERROR =             25.67


  PERCENT DISCREPANCY =             -0.05    PERCENT DISCREPANCY =              0.01



1
 SUMMARY VOLUMETRIC BUDGET FOR GSFLOW 
 DATE: 04 28 1981              CUMULATIVE TIME STEP:     210
 MODFLOW STRESS PERIOD      2     CURRENT TIME STEP:     210     ITERATIONS:      13

 -----------------------------------------------------------------------------------

   CUMULATIVE VOLUMES               L**3   RATES FOR THIS TIME STEP           L**3/T
   ------------------                      ------------------------

                                     IN                                         IN
                                     --                                         --
        PRECIPITATION =        1.6515D+07          PRECIPITATION =                  
           STREAMFLOW =                               STREAMFLOW =                  
     GW BOUNDARY FLOW =                         GW BOUNDARY FLOW =                  


                                    OUT                                        OUT
                                    ---                                        ---
   EVAPOTRANSPIRATION =        9639027.02     EVAPOTRANSPIRATION =         204813.40
           STREAMFLOW =        5578883.54             STREAMFLOW =          23089.61
     GW BOUNDARY FLOW =         136711.61       GW BOUNDARY FLOW =            650.35

   INFLOWS - OUTFLOWS =        1160824.78     INFLOWS - OUTFLOWS =        -228553.36
             --------                                   --------

 TOTAL STORAGE CHANGE =        1168566.10         STORAGE CHANGE =        -228569.38
       --------------                             --------------
         LAND SURFACE =         765041.89           LAND SURFACE =         -86581.37
            SOIL ZONE =        1726816.42              SOIL ZONE =        -137134.64
     UNSATURATED ZONE =        -609616.88       UNSATURATED ZONE =          -3949.43
       SATURATED ZONE =        -713675.34         SATURATED ZONE =           -903.94

 OVERALL BUDGET ERROR =          -7741.32           BUDGET ERROR =             16.02


  PERCENT DISCREPANCY =             -0.05    PERCENT DISCREPANCY =              0.01



1
 SUMMARY VOLUMETRIC BUDGET FOR GSFLOW 
 DATE: 05 05 1981              CUMULATIVE TIME STEP:     217
 MODFLOW STRESS PERIOD      2     CURRENT TIME STEP:     217     ITERATIONS:      14

 -----------------------------------------------------------------------------------

   CUMULATIVE VOLUMES               L**3   RATES FOR THIS TIME STEP           L**3/T
   ------------------                      ------------------------

                                     IN                                         IN
                                     --                                         --
        PRECIPITATION =        1.6515D+07          PRECIPITATION =                  
           STREAMFLOW =                               STREAMFLOW =                  
     GW BOUNDARY FLOW =                         GW BOUNDARY FLOW =                  


                                    OUT                                        OUT
                                    ---                                        ---
   EVAPOTRANSPIRATION =        1.0549D+07     EVAPOTRANSPIRATION =          58124.94
           STREAMFLOW =        5677379.34             STREAMFLOW =          10201.76
     GW BOUNDARY FLOW =         141256.99       GW BOUNDARY FLOW =            648.68

   INFLOWS - OUTFLOWS =         148201.24     INFLOWS - OUTFLOWS =         -68975.38
             --------                                   --------

 TOTAL STORAGE CHANGE =         155897.24         STORAGE CHANGE =         -68977.12
       --------------                             --------------
         LAND SURFACE =         399244.38           LAND SURFACE =         -19315.26
            SOIL ZONE =        1189272.03              SOIL ZONE =         -30744.47
     UNSATURATED ZONE =        -699873.98       UNSATURATED ZONE =         -15807.89
       SATURATED ZONE =        -732745.19         SATURATED ZONE =          -3109.51

 OVERALL BUDGET ERROR =          -7696.00           BUDGET ERROR =              1.74


  PERCENT DISCREPANCY =             -0.05    PERCENT DISCREPANCY =              0.00



1
 SUMMARY VOLUMETRIC BUDGET FOR GSFLOW 
 DATE: 05 12 1981              CUMULATIVE TIME STEP:     224
 MODFLOW STRESS PERIOD      2     CURRENT TIME STEP:     224     ITERATIONS:      11

 -----------------------------------------------------------------------------------

   CUMULATIVE VOLUMES               L**3   RATES FOR THIS TIME STEP           L**3/T
   ------------------                      ------------------------

                                     IN                                         IN
                                     --                                         --
        PRECIPITATION =        1.6515D+07          PRECIPITATION =                  
           STREAMFLOW =                               STREAMFLOW =                  
     GW BOUNDARY FLOW =                         GW BOUNDARY FLOW =                  


                                    OUT                                        OUT
                                    ---                                        ---
   EVAPOTRANSPIRATION =        1.1081D+07     EVAPOTRANSPIRATION =          95112.74
           STREAMFLOW =        5745522.25             STREAMFLOW =          10246.48
     GW BOUNDARY FLOW =         145795.06       GW BOUNDARY FLOW =            648.16

   INFLOWS - OUTFLOWS =        -456801.65     INFLOWS - OUTFLOWS =        -106007.39
             --------                                   --------

 TOTAL STORAGE CHANGE =        -449143.38         STORAGE CHANGE =        -106013.36
       --------------                             --------------
         LAND SURFACE =         236028.84           LAND SURFACE =         -28466.58
            SOIL ZONE =         880797.95              SOIL ZONE =         -59216.90
     UNSATURATED ZONE =        -801609.75       UNSATURATED ZONE =         -12885.19
       SATURATED ZONE =        -764360.42         SATURATED ZONE =          -5444.69

 OVERALL BUDGET ERROR =          -7658.27           BUDGET ERROR =              5.97


  PERCENT DISCREPANCY =             -0.05    PERCENT DISCREPANCY =              0.01



1
 SUMMARY VOLUMETRIC BUDGET FOR GSFLOW 
 DATE: 05 19 1981              CUMULATIVE TIME STEP:     231
 MODFLOW STRESS PERIOD      2     CURRENT TIME STEP:     231     ITERATIONS:      14

 -----------------------------------------------------------------------------------

   CUMULATIVE VOLUMES               L**3   RATES FOR THIS TIME STEP           L**3/T
   ------------------                      ------------------------

                                     IN                                         IN
                                     --                                         --
        PRECIPITATION =        1.7837D+07          PRECIPITATION =         169047.83
           STREAMFLOW =                               STREAMFLOW =                  
     GW BOUNDARY FLOW =                         GW BOUNDARY FLOW =                  


                                    OUT                                        OUT
                                    ---                                        ---
   EVAPOTRANSPIRATION =        1.1494D+07     EVAPOTRANSPIRATION =          34209.10
           STREAMFLOW =        5865026.15             STREAMFLOW =          21952.63
     GW BOUNDARY FLOW =         150333.91       GW BOUNDARY FLOW =            649.27

   INFLOWS - OUTFLOWS =         327791.37     INFLOWS - OUTFLOWS =         112236.83
             --------                                   --------

 TOTAL STORAGE CHANGE =         335458.04         STORAGE CHANGE =         112242.92
       --------------                             --------------
         LAND SURFACE =         199378.20           LAND SURFACE =          20104.58
            SOIL ZONE =        1807793.29              SOIL ZONE =         100102.03
     UNSATURATED ZONE =        -864509.76       UNSATURATED ZONE =          -1263.63
       SATURATED ZONE =        -807203.69         SATURATED ZONE =          -6700.06

 OVERALL BUDGET ERROR =          -7666.67           BUDGET ERROR =             -6.09


  PERCENT DISCREPANCY =             -0.04    PERCENT DISCREPANCY =             -0.00



1
 SUMMARY VOLUMETRIC BUDGET FOR GSFLOW 
 DATE: 05 26 1981              CUMULATIVE TIME STEP:     238
 MODFLOW STRESS PERIOD      2     CURRENT TIME STEP:     238     ITERATIONS:      13

 -----------------------------------------------------------------------------------

   CUMULATIVE VOLUMES               L**3   RATES FOR THIS TIME STEP           L**3/T
   ------------------                      ------------------------

                                     IN                                         IN
                                     --                                         --
        PRECIPITATION =        1.8252D+07          PRECIPITATION =         284301.98
           STREAMFLOW =                               STREAMFLOW =                  
     GW BOUNDARY FLOW =                         GW BOUNDARY FLOW =                  


                                    OUT                                        OUT
                                    ---                                        ---
   EVAPOTRANSPIRATION =        1.2404D+07     EVAPOTRANSPIRATION =         145741.84
           STREAMFLOW =        5964567.95             STREAMFLOW =          17760.21
     GW BOUNDARY FLOW =         154873.67       GW BOUNDARY FLOW =            648.35

   INFLOWS - OUTFLOWS =        -271820.23     INFLOWS - OUTFLOWS =         120151.59
             --------                                   --------

 TOTAL STORAGE CHANGE =        -264145.74         STORAGE CHANGE =         120164.23
       --------------                             --------------
         LAND SURFACE =         121447.13           LAND SURFACE =          -8077.84
            SOIL ZONE =        1397834.55              SOIL ZONE =         145800.86
     UNSATURATED ZONE =        -924707.55       UNSATURATED ZONE =         -10413.22
       SATURATED ZONE =        -858719.88         SATURATED ZONE =          -7145.56

 OVERALL BUDGET ERROR =          -7674.49           BUDGET ERROR =            -12.64


  PERCENT DISCREPANCY =             -0.04    PERCENT DISCREPANCY =             -0.00



1
 SUMMARY VOLUMETRIC BUDGET FOR GSFLOW 
 DATE: 06 02 1981              CUMULATIVE TIME STEP:     245
 MODFLOW STRESS PERIOD      2     CURRENT TIME STEP:     245     ITERATIONS:      12

 -----------------------------------------------------------------------------------

   CUMULATIVE VOLUMES               L**3   RATES FOR THIS TIME STEP           L**3/T
   ------------------                      ------------------------

                                     IN                                         IN
                                     --                                         --
        PRECIPITATION =        1.8318D+07          PRECIPITATION =          50867.39
           STREAMFLOW =                               STREAMFLOW =                  
     GW BOUNDARY FLOW =                         GW BOUNDARY FLOW =                  


                                    OUT                                        OUT
                                    ---                                        ---
   EVAPOTRANSPIRATION =        1.3202D+07     EVAPOTRANSPIRATION =          74855.97
           STREAMFLOW =        6030356.65             STREAMFLOW =           7553.70
     GW BOUNDARY FLOW =         159408.20       GW BOUNDARY FLOW =            647.39

   INFLOWS - OUTFLOWS =       -1073135.26     INFLOWS - OUTFLOWS =         -32189.67
             --------                                   --------

 TOTAL STORAGE CHANGE =       -1065436.12         STORAGE CHANGE =         -32180.71
       --------------                             --------------
         LAND SURFACE =          76065.80           LAND SURFACE =          28539.47
            SOIL ZONE =         783666.74              SOIL ZONE =         -39356.21
     UNSATURATED ZONE =       -1007737.46       UNSATURATED ZONE =         -12520.51
       SATURATED ZONE =        -917431.19         SATURATED ZONE =          -8843.46

 OVERALL BUDGET ERROR =          -7699.14           BUDGET ERROR =             -8.96


  PERCENT DISCREPANCY =             -0.04    PERCENT DISCREPANCY =             -0.01



1
 SUMMARY VOLUMETRIC BUDGET FOR GSFLOW 
 DATE: 06 09 1981              CUMULATIVE TIME STEP:     252
 MODFLOW STRESS PERIOD      2     CURRENT TIME STEP:     252     ITERATIONS:      16

 -----------------------------------------------------------------------------------

   CUMULATIVE VOLUMES               L**3   RATES FOR THIS TIME STEP           L**3/T
   ------------------                      ------------------------

                                     IN                                         IN
                                     --                                         --
        PRECIPITATION =        1.8318D+07          PRECIPITATION =                  
           STREAMFLOW =                               STREAMFLOW =                  
     GW BOUNDARY FLOW =                         GW BOUNDARY FLOW =                  


                                    OUT                                        OUT
                                    ---                                        ---
   EVAPOTRANSPIRATION =        1.3672D+07     EVAPOTRANSPIRATION =          50404.56
           STREAMFLOW =        6077049.80             STREAMFLOW =           6294.62
     GW BOUNDARY FLOW =         163938.00       GW BOUNDARY FLOW =            646.96

   INFLOWS - OUTFLOWS =       -1594266.44     INFLOWS - OUTFLOWS =         -57346.14
             --------                                   --------

 TOTAL STORAGE CHANGE =       -1586504.66         STORAGE CHANGE =         -57343.91
       --------------                             --------------
         LAND SURFACE =          13609.96           LAND SURFACE =          -3000.14
            SOIL ZONE =         478375.77              SOIL ZONE =         -32324.67
     UNSATURATED ZONE =       -1095087.84       UNSATURATED ZONE =         -12379.12
       SATURATED ZONE =        -983402.55         SATURATED ZONE =          -9639.98

 OVERALL BUDGET ERROR =          -7761.78           BUDGET ERROR =             -2.23


  PERCENT DISCREPANCY =             -0.04    PERCENT DISCREPANCY =             -0.00



1
 SUMMARY VOLUMETRIC BUDGET FOR GSFLOW 
 DATE: 06 16 1981              CUMULATIVE TIME STEP:     259
 MODFLOW STRESS PERIOD      2     CURRENT TIME STEP:     259     ITERATIONS:      13

 -----------------------------------------------------------------------------------

   CUMULATIVE VOLUMES               L**3   RATES FOR THIS TIME STEP           L**3/T
   ------------------                      ------------------------

                                     IN                                         IN
                                     --                                         --
        PRECIPITATION =        1.8318D+07          PRECIPITATION =                  
           STREAMFLOW =                               STREAMFLOW =                  
     GW BOUNDARY FLOW =                         GW BOUNDARY FLOW =                  


                                    OUT                                        OUT
                                    ---                                        ---
   EVAPOTRANSPIRATION =        1.3862D+07     EVAPOTRANSPIRATION =          44321.17
           STREAMFLOW =        6119851.47             STREAMFLOW =           6049.32
     GW BOUNDARY FLOW =         168465.76       GW BOUNDARY FLOW =            646.74

   INFLOWS - OUTFLOWS =       -1832437.96     INFLOWS - OUTFLOWS =         -51017.23
             --------                                   --------

 TOTAL STORAGE CHANGE =       -1824632.81         STORAGE CHANGE =         -51006.17
       --------------                             --------------
         LAND SURFACE =           6267.42           LAND SURFACE =          -1304.38
            SOIL ZONE =         400397.32              SOIL ZONE =         -28007.64
     UNSATURATED ZONE =       -1178990.04       UNSATURATED ZONE =         -11905.04
       SATURATED ZONE =       -1052307.51         SATURATED ZONE =          -9789.11

 OVERALL BUDGET ERROR =          -7805.15           BUDGET ERROR =            -11.06


  PERCENT DISCREPANCY =             -0.04    PERCENT DISCREPANCY =             -0.02



1
 SUMMARY VOLUMETRIC BUDGET FOR GSFLOW 
 DATE: 06 23 1981              CUMULATIVE TIME STEP:     266
 MODFLOW STRESS PERIOD      2     CURRENT TIME STEP:     266     ITERATIONS:      11

 -----------------------------------------------------------------------------------

   CUMULATIVE VOLUMES               L**3   RATES FOR THIS TIME STEP           L**3/T
   ------------------                      ------------------------

                                     IN                                         IN
                                     --                                         --
        PRECIPITATION =        1.8318D+07          PRECIPITATION =                  
           STREAMFLOW =                               STREAMFLOW =                  
     GW BOUNDARY FLOW =                         GW BOUNDARY FLOW =                  


                                    OUT                                        OUT
                                    ---                                        ---
   EVAPOTRANSPIRATION =        1.4139D+07     EVAPOTRANSPIRATION =          30913.61
           STREAMFLOW =        6161507.39             STREAMFLOW =           5894.62
     GW BOUNDARY FLOW =         172992.33       GW BOUNDARY FLOW =            646.60

   INFLOWS - OUTFLOWS =       -2155088.97     INFLOWS - OUTFLOWS =         -37454.82
             --------                                   --------

 TOTAL STORAGE CHANGE =       -2147239.59         STORAGE CHANGE =         -37442.90
       --------------                             --------------
         LAND SURFACE =                             LAND SURFACE =                  
            SOIL ZONE =         234832.99              SOIL ZONE =         -16026.28
     UNSATURATED ZONE =       -1259504.25       UNSATURATED ZONE =         -11072.86
       SATURATED ZONE =       -1122568.32         SATURATED ZONE =         -10343.76

 OVERALL BUDGET ERROR =          -7849.38           BUDGET ERROR =            -11.92


  PERCENT DISCREPANCY =             -0.04    PERCENT DISCREPANCY =             -0.03



1
 SUMMARY VOLUMETRIC BUDGET FOR GSFLOW 
 DATE: 06 30 1981              CUMULATIVE TIME STEP:     273
 MODFLOW STRESS PERIOD      2     CURRENT TIME STEP:     273     ITERATIONS:      13

 -----------------------------------------------------------------------------------

   CUMULATIVE VOLUMES               L**3   RATES FOR THIS TIME STEP           L**3/T
   ------------------                      ------------------------

                                     IN                                         IN
[...]
                                    ---                                        ---
   EVAPOTRANSPIRATION =        2.9592D+08     EVAPOTRANSPIRATION =          41295.52
           STREAMFLOW =        1.7486D+08             STREAMFLOW =           6691.35
     GW BOUNDARY FLOW =        3736517.98       GW BOUNDARY FLOW =            651.08

   INFLOWS - OUTFLOWS =       -9460014.57     INFLOWS - OUTFLOWS =         -48637.95
             --------                                   --------

 TOTAL STORAGE CHANGE =       -9313929.56         STORAGE CHANGE =         -48670.39
       --------------                             --------------
         LAND SURFACE =         152692.45           LAND SURFACE =          -6818.24
            SOIL ZONE =         234145.54              SOIL ZONE =         -21292.13
     UNSATURATED ZONE =        5993666.70       UNSATURATED ZONE =         -26184.21
       SATURATED ZONE =       -1.5694D+07         SATURATED ZONE =           5624.19

 OVERALL BUDGET ERROR =        -146085.01           BUDGET ERROR =             32.44


  PERCENT DISCREPANCY =             -0.03    PERCENT DISCREPANCY =              0.07



1
 SUMMARY VOLUMETRIC BUDGET FOR GSFLOW 
 DATE: 07 30 1996              CUMULATIVE TIME STEP:    5782
 MODFLOW STRESS PERIOD      2     CURRENT TIME STEP:    5782     ITERATIONS:      14

 -----------------------------------------------------------------------------------

   CUMULATIVE VOLUMES               L**3   RATES FOR THIS TIME STEP           L**3/T
   ------------------                      ------------------------

                                     IN                                         IN
                                     --                                         --
        PRECIPITATION =        4.6511D+08          PRECIPITATION =                  
           STREAMFLOW =                               STREAMFLOW =                  
     GW BOUNDARY FLOW =                         GW BOUNDARY FLOW =                  


                                    OUT                                        OUT
                                    ---                                        ---
   EVAPOTRANSPIRATION =        2.9619D+08     EVAPOTRANSPIRATION =          31104.87
           STREAMFLOW =        1.7491D+08             STREAMFLOW =           6542.78
     GW BOUNDARY FLOW =        3741073.80       GW BOUNDARY FLOW =            650.66

   INFLOWS - OUTFLOWS =       -9723844.08     INFLOWS - OUTFLOWS =         -38298.30
             --------                                   --------

 TOTAL STORAGE CHANGE =       -9577819.71         STORAGE CHANGE =         -38310.29
       --------------                             --------------
         LAND SURFACE =         112099.97           LAND SURFACE =          -4929.07
            SOIL ZONE =         153535.69              SOIL ZONE =         -13118.59
     UNSATURATED ZONE =        5816755.69       UNSATURATED ZONE =         -24835.91
       SATURATED ZONE =       -1.5660D+07         SATURATED ZONE =           4573.27

 OVERALL BUDGET ERROR =        -146024.37           BUDGET ERROR =             11.99


  PERCENT DISCREPANCY =             -0.03    PERCENT DISCREPANCY =              0.03



1
 SUMMARY VOLUMETRIC BUDGET FOR GSFLOW 
 DATE: 08 06 1996              CUMULATIVE TIME STEP:    5789
 MODFLOW STRESS PERIOD      2     CURRENT TIME STEP:    5789     ITERATIONS:      13

 -----------------------------------------------------------------------------------

   CUMULATIVE VOLUMES               L**3   RATES FOR THIS TIME STEP           L**3/T
   ------------------                      ------------------------

                                     IN                                         IN
                                     --                                         --
        PRECIPITATION =        4.6511D+08          PRECIPITATION =                  
           STREAMFLOW =                               STREAMFLOW =                  
     GW BOUNDARY FLOW =                         GW BOUNDARY FLOW =                  


                                    OUT                                        OUT
                                    ---                                        ---
   EVAPOTRANSPIRATION =        2.9634D+08     EVAPOTRANSPIRATION =          19256.65
           STREAMFLOW =        1.7495D+08             STREAMFLOW =           6343.54
     GW BOUNDARY FLOW =        3745628.21       GW BOUNDARY FLOW =            650.58

   INFLOWS - OUTFLOWS =       -9926350.84     INFLOWS - OUTFLOWS =         -26250.77
             --------                                   --------

 TOTAL STORAGE CHANGE =       -9780367.11         STORAGE CHANGE =         -26269.95
       --------------                             --------------
         LAND SURFACE =          85235.59           LAND SURFACE =          -3353.13
            SOIL ZONE =         118521.51              SOIL ZONE =          -2927.82
     UNSATURATED ZONE =        5648080.58       UNSATURATED ZONE =         -23742.93
       SATURATED ZONE =       -1.5632D+07         SATURATED ZONE =           3753.93

 OVERALL BUDGET ERROR =        -145983.73           BUDGET ERROR =             19.17


  PERCENT DISCREPANCY =             -0.03    PERCENT DISCREPANCY =              0.07



1
 SUMMARY VOLUMETRIC BUDGET FOR GSFLOW 
 DATE: 08 13 1996              CUMULATIVE TIME STEP:    5796
 MODFLOW STRESS PERIOD      2     CURRENT TIME STEP:    5796     ITERATIONS:      14

 -----------------------------------------------------------------------------------

   CUMULATIVE VOLUMES               L**3   RATES FOR THIS TIME STEP           L**3/T
   ------------------                      ------------------------

                                     IN                                         IN
                                     --                                         --
        PRECIPITATION =        4.6531D+08          PRECIPITATION =          54456.73
           STREAMFLOW =                               STREAMFLOW =                  
     GW BOUNDARY FLOW =                         GW BOUNDARY FLOW =                  


                                    OUT                                        OUT
                                    ---                                        ---
   EVAPOTRANSPIRATION =        2.9652D+08     EVAPOTRANSPIRATION =          36509.17
           STREAMFLOW =        1.7500D+08             STREAMFLOW =           7536.02
     GW BOUNDARY FLOW =        3750181.84       GW BOUNDARY FLOW =            650.53

   INFLOWS - OUTFLOWS =       -9957324.03     INFLOWS - OUTFLOWS =           9761.00
             --------                                   --------

 TOTAL STORAGE CHANGE =       -9811449.77         STORAGE CHANGE =           9746.06
       --------------                             --------------
         LAND SURFACE =          92673.80           LAND SURFACE =          -3493.45
            SOIL ZONE =         218473.82              SOIL ZONE =          32833.73
     UNSATURATED ZONE =        5484945.29       UNSATURATED ZONE =         -23391.03
       SATURATED ZONE =       -1.5608D+07         SATURATED ZONE =           3796.81

 OVERALL BUDGET ERROR =        -145874.26           BUDGET ERROR =             14.94


  PERCENT DISCREPANCY =             -0.03    PERCENT DISCREPANCY =              0.03



1
 SUMMARY VOLUMETRIC BUDGET FOR GSFLOW 
 DATE: 08 20 1996              CUMULATIVE TIME STEP:    5803
 MODFLOW STRESS PERIOD      2     CURRENT TIME STEP:    5803     ITERATIONS:      18

 -----------------------------------------------------------------------------------

   CUMULATIVE VOLUMES               L**3   RATES FOR THIS TIME STEP           L**3/T
   ------------------                      ------------------------

                                     IN                                         IN
                                     --                                         --
        PRECIPITATION =        4.6531D+08          PRECIPITATION =                  
           STREAMFLOW =                               STREAMFLOW =                  
     GW BOUNDARY FLOW =                         GW BOUNDARY FLOW =                  


                                    OUT                                        OUT
                                    ---                                        ---
   EVAPOTRANSPIRATION =        2.9672D+08     EVAPOTRANSPIRATION =          18744.77
           STREAMFLOW =        1.7505D+08             STREAMFLOW =           6151.63
     GW BOUNDARY FLOW =        3754733.94       GW BOUNDARY FLOW =            650.12

   INFLOWS - OUTFLOWS =       -1.0207D+07     INFLOWS - OUTFLOWS =         -25546.52
             --------                                   --------

 TOTAL STORAGE CHANGE =       -1.0062D+07         STORAGE CHANGE =         -25554.72
       --------------                             --------------
         LAND SURFACE =          40251.08           LAND SURFACE =          -2042.84
            SOIL ZONE =         157769.52              SOIL ZONE =          -4036.83
     UNSATURATED ZONE =        5324972.17       UNSATURATED ZONE =         -22457.78
       SATURATED ZONE =       -1.5585D+07         SATURATED ZONE =           2982.72

 OVERALL BUDGET ERROR =        -145863.96           BUDGET ERROR =              8.20


  PERCENT DISCREPANCY =             -0.03    PERCENT DISCREPANCY =              0.03



1
 SUMMARY VOLUMETRIC BUDGET FOR GSFLOW 
 DATE: 08 27 1996              CUMULATIVE TIME STEP:    5810
 MODFLOW STRESS PERIOD      2     CURRENT TIME STEP:    5810     ITERATIONS:      18

 -----------------------------------------------------------------------------------

   CUMULATIVE VOLUMES               L**3   RATES FOR THIS TIME STEP           L**3/T
   ------------------                      ------------------------

                                     IN                                         IN
                                     --                                         --
        PRECIPITATION =        4.6531D+08          PRECIPITATION =                  
           STREAMFLOW =                               STREAMFLOW =                  
     GW BOUNDARY FLOW =                         GW BOUNDARY FLOW =                  


                                    OUT                                        OUT
                                    ---                                        ---
   EVAPOTRANSPIRATION =        2.9686D+08     EVAPOTRANSPIRATION =          15286.07
           STREAMFLOW =        1.7509D+08             STREAMFLOW =           5999.70
     GW BOUNDARY FLOW =        3759283.26       GW BOUNDARY FLOW =            649.74

   INFLOWS - OUTFLOWS =       -1.0394D+07     INFLOWS - OUTFLOWS =         -21935.51
             --------                                   --------

 TOTAL STORAGE CHANGE =       -1.0248D+07         STORAGE CHANGE =         -21929.46
       --------------                             --------------
         LAND SURFACE =          26150.58           LAND SURFACE =          -1370.47
            SOIL ZONE =         121000.24              SOIL ZONE =          -1333.38
     UNSATURATED ZONE =        5172915.18       UNSATURATED ZONE =         -21143.31
       SATURATED ZONE =       -1.5568D+07         SATURATED ZONE =           1917.71

 OVERALL BUDGET ERROR =        -145849.48           BUDGET ERROR =             -6.05


  PERCENT DISCREPANCY =             -0.03    PERCENT DISCREPANCY =             -0.03



1
 SUMMARY VOLUMETRIC BUDGET FOR GSFLOW 
 DATE: 09 03 1996              CUMULATIVE TIME STEP:    5817
 MODFLOW STRESS PERIOD      2     CURRENT TIME STEP:    5817     ITERATIONS:      18

 -----------------------------------------------------------------------------------

   CUMULATIVE VOLUMES               L**3   RATES FOR THIS TIME STEP           L**3/T
   ------------------                      ------------------------

                                     IN                                         IN
                                     --                                         --
        PRECIPITATION =        4.6531D+08          PRECIPITATION =                  
           STREAMFLOW =                               STREAMFLOW =                  
     GW BOUNDARY FLOW =                         GW BOUNDARY FLOW =                  


                                    OUT                                        OUT
                                    ---                                        ---
   EVAPOTRANSPIRATION =        2.9697D+08     EVAPOTRANSPIRATION =          13666.18
           STREAMFLOW =        1.7513D+08             STREAMFLOW =           5897.04
     GW BOUNDARY FLOW =        3763829.83       GW BOUNDARY FLOW =            649.35

   INFLOWS - OUTFLOWS =       -1.0549D+07     INFLOWS - OUTFLOWS =         -20212.58
             --------                                   --------

 TOTAL STORAGE CHANGE =       -1.0403D+07         STORAGE CHANGE =         -20209.42
       --------------                             --------------
         LAND SURFACE =          17057.94           LAND SURFACE =          -1080.58
            SOIL ZONE =         108866.56              SOIL ZONE =           -121.20
     UNSATURATED ZONE =        5030643.40       UNSATURATED ZONE =         -20086.62
       SATURATED ZONE =       -1.5559D+07         SATURATED ZONE =           1078.98

 OVERALL BUDGET ERROR =        -145844.43           BUDGET ERROR =             -3.16


  PERCENT DISCREPANCY =             -0.03    PERCENT DISCREPANCY =             -0.02



1
 SUMMARY VOLUMETRIC BUDGET FOR GSFLOW 
 DATE: 09 10 1996              CUMULATIVE TIME STEP:    5824
 MODFLOW STRESS PERIOD      2     CURRENT TIME STEP:    5824     ITERATIONS:      18

 -----------------------------------------------------------------------------------

   CUMULATIVE VOLUMES               L**3   RATES FOR THIS TIME STEP           L**3/T
   ------------------                      ------------------------

                                     IN                                         IN
                                     --                                         --
        PRECIPITATION =        4.6531D+08          PRECIPITATION =                  
           STREAMFLOW =                               STREAMFLOW =                  
     GW BOUNDARY FLOW =                         GW BOUNDARY FLOW =                  


                                    OUT                                        OUT
                                    ---                                        ---
   EVAPOTRANSPIRATION =        2.9705D+08     EVAPOTRANSPIRATION =          13468.09
           STREAMFLOW =        1.7517D+08             STREAMFLOW =           5805.77
     GW BOUNDARY FLOW =        3768373.75       GW BOUNDARY FLOW =            648.97

   INFLOWS - OUTFLOWS =       -1.0678D+07     INFLOWS - OUTFLOWS =         -19922.84
             --------                                   --------

 TOTAL STORAGE CHANGE =       -1.0532D+07         STORAGE CHANGE =         -19919.28
       --------------                             --------------
         LAND SURFACE =          10644.28           LAND SURFACE =           -976.08
            SOIL ZONE =         118453.99              SOIL ZONE =           -144.81
     UNSATURATED ZONE =        4891448.53       UNSATURATED ZONE =         -19704.19
       SATURATED ZONE =       -1.5552D+07         SATURATED ZONE =            905.80

 OVERALL BUDGET ERROR =        -145828.71           BUDGET ERROR =             -3.56


  PERCENT DISCREPANCY =             -0.03    PERCENT DISCREPANCY =             -0.02



1
 SUMMARY VOLUMETRIC BUDGET FOR GSFLOW 
 DATE: 09 17 1996              CUMULATIVE TIME STEP:    5831
 MODFLOW STRESS PERIOD      2     CURRENT TIME STEP:    5831     ITERATIONS:      18

 -----------------------------------------------------------------------------------

   CUMULATIVE VOLUMES               L**3   RATES FOR THIS TIME STEP           L**3/T
   ------------------                      ------------------------

                                     IN                                         IN
                                     --                                         --
        PRECIPITATION =        4.6637D+08          PRECIPITATION =                  
           STREAMFLOW =                               STREAMFLOW =                  
     GW BOUNDARY FLOW =                         GW BOUNDARY FLOW =                  


                                    OUT                                        OUT
                                    ---                                        ---
   EVAPOTRANSPIRATION =        2.9726D+08     EVAPOTRANSPIRATION =          74571.48
           STREAMFLOW =        1.7523D+08             STREAMFLOW =           9795.28
     GW BOUNDARY FLOW =        3772917.07       GW BOUNDARY FLOW =            649.37

   INFLOWS - OUTFLOWS =       -9895867.72     INFLOWS - OUTFLOWS =         -85016.14
             --------                                   --------

 TOTAL STORAGE CHANGE =       -9750056.75         STORAGE CHANGE =         -85026.93
       --------------                             --------------
         LAND SURFACE =           6180.91           LAND SURFACE =         -34896.28
            SOIL ZONE =        1033282.01              SOIL ZONE =         -31507.77
     UNSATURATED ZONE =        4756648.00       UNSATURATED ZONE =         -19155.30
       SATURATED ZONE =       -1.5546D+07         SATURATED ZONE =            532.42

 OVERALL BUDGET ERROR =        -145810.97           BUDGET ERROR =             10.79


  PERCENT DISCREPANCY =             -0.03    PERCENT DISCREPANCY =              0.01



1
 SUMMARY VOLUMETRIC BUDGET FOR GSFLOW 
 DATE: 09 24 1996              CUMULATIVE TIME STEP:    5838
 MODFLOW STRESS PERIOD      2     CURRENT TIME STEP:    5838     ITERATIONS:      18

 -----------------------------------------------------------------------------------

   CUMULATIVE VOLUMES               L**3   RATES FOR THIS TIME STEP           L**3/T
   ------------------                      ------------------------

                                     IN                                         IN
                                     --                                         --
        PRECIPITATION =        4.6637D+08          PRECIPITATION =                  
           STREAMFLOW =                               STREAMFLOW =                  
     GW BOUNDARY FLOW =                         GW BOUNDARY FLOW =                  


                                    OUT                                        OUT
                                    ---                                        ---
   EVAPOTRANSPIRATION =        2.9779D+08     EVAPOTRANSPIRATION =          50869.49
           STREAMFLOW =        1.7528D+08             STREAMFLOW =           6132.95
     GW BOUNDARY FLOW =        3777458.68       GW BOUNDARY FLOW =            648.47

   INFLOWS - OUTFLOWS =       -1.0484D+07     INFLOWS - OUTFLOWS =         -57650.91
             --------                                   --------

 TOTAL STORAGE CHANGE =       -1.0339D+07         STORAGE CHANGE =         -57647.77
       --------------                             --------------
         LAND SURFACE =           2675.39           LAND SURFACE =           -481.80
            SOIL ZONE =         578047.10              SOIL ZONE =         -38733.89
     UNSATURATED ZONE =        4625482.31       UNSATURATED ZONE =         -18417.78
       SATURATED ZONE =       -1.5545D+07         SATURATED ZONE =            -14.31

 OVERALL BUDGET ERROR =        -145804.06           BUDGET ERROR =             -3.14


  PERCENT DISCREPANCY =             -0.03    PERCENT DISCREPANCY =             -0.01



