1
 SUMMARY VOLUMETRIC BUDGET FOR GSFLOW 
 DATE: 10 07 1980              CUMULATIVE TIME STEP:       7
 MODFLOW STRESS PERIOD      2     CURRENT TIME STEP:       7     ITERATIONS:       6

 -----------------------------------------------------------------------------------

   CUMULATIVE VOLUMES               L**3   RATES FOR THIS TIME STEP           L**3/T
   ------------------                      ------------------------

                                     IN                                         IN
                                     --                                         --
        PRECIPITATION =                            PRECIPITATION =                  
           STREAMFLOW =                               STREAMFLOW =                  
     GW BOUNDARY FLOW =                         GW BOUNDARY FLOW =                  


                                    OUT                                        OUT
                                    ---                                        ---
   EVAPOTRANSPIRATION =          63502.38     EVAPOTRANSPIRATION =           9679.51
           STREAMFLOW =          42957.63             STREAMFLOW =           6065.77
     GW BOUNDARY FLOW =           4541.44       GW BOUNDARY FLOW =            648.70

   INFLOWS - OUTFLOWS =        -111001.44     INFLOWS - OUTFLOWS =         -16393.99
             --------                                   --------

 TOTAL STORAGE CHANGE =        -110545.66         STORAGE CHANGE =         -16325.67
       --------------                             --------------
         LAND SURFACE =                             LAND SURFACE =                  
            SOIL ZONE =          47014.67              SOIL ZONE =           6016.91
     UNSATURATED ZONE =        -144777.37       UNSATURATED ZONE =         -20360.11
       SATURATED ZONE =         -12782.96         SATURATED ZONE =          -1982.46

 OVERALL BUDGET ERROR =           -455.78           BUDGET ERROR =            -68.32


  PERCENT DISCREPANCY =             -0.41    PERCENT DISCREPANCY =             -0.42



1
 SUMMARY VOLUMETRIC BUDGET FOR GSFLOW 
 DATE: 10 14 1980              CUMULATIVE TIME STEP:      14
 MODFLOW STRESS PERIOD      2     CURRENT TIME STEP:      14     ITERATIONS:       6

 -----------------------------------------------------------------------------------

   CUMULATIVE VOLUMES               L**3   RATES FOR THIS TIME STEP           L**3/T
   ------------------                      ------------------------

                                     IN                                         IN
                                     --                                         --
        PRECIPITATION =         650780.39          PRECIPITATION =         164754.68
           STREAMFLOW =                               STREAMFLOW =                  
     GW BOUNDARY FLOW =                         GW BOUNDARY FLOW =                  


                                    OUT                                        OUT
                                    ---                                        ---
   EVAPOTRANSPIRATION =         147659.88     EVAPOTRANSPIRATION =           7975.76
           STREAMFLOW =          92677.73             STREAMFLOW =           7494.70
     GW BOUNDARY FLOW =           9082.78       GW BOUNDARY FLOW =            648.89

   INFLOWS - OUTFLOWS =         401360.00     INFLOWS - OUTFLOWS =         148635.32
             --------                                   --------

 TOTAL STORAGE CHANGE =         402330.52         STORAGE CHANGE =         148709.32
       --------------                             --------------
         LAND SURFACE =         277680.20           LAND SURFACE =         136619.69
            SOIL ZONE =         436777.17              SOIL ZONE =          34107.48
     UNSATURATED ZONE =        -284452.37       UNSATURATED ZONE =         -19623.49
       SATURATED ZONE =         -27674.48         SATURATED ZONE =          -2394.36

 OVERALL BUDGET ERROR =           -970.51           BUDGET ERROR =            -74.00


  PERCENT DISCREPANCY =             -0.15    PERCENT DISCREPANCY =             -0.04



1
 SUMMARY VOLUMETRIC BUDGET FOR GSFLOW 
 DATE: 10 21 1980              CUMULATIVE TIME STEP:      21
 MODFLOW STRESS PERIOD      2     CURRENT TIME STEP:      21     ITERATIONS:       6

 -----------------------------------------------------------------------------------

   CUMULATIVE VOLUMES               L**3   RATES FOR THIS TIME STEP           L**3/T
   ------------------                      ------------------------

                                     IN                                         IN
                                     --                                         --
        PRECIPITATION =         733156.23          PRECIPITATION =                  
           STREAMFLOW =                               STREAMFLOW =                  
     GW BOUNDARY FLOW =                         GW BOUNDARY FLOW =                  


                                    OUT                                        OUT
                                    ---                                        ---
   EVAPOTRANSPIRATION =         376397.63     EVAPOTRANSPIRATION =          37106.86
           STREAMFLOW =         144890.95             STREAMFLOW =           7105.98
     GW BOUNDARY FLOW =          13624.56       GW BOUNDARY FLOW =            648.77

   INFLOWS - OUTFLOWS =         198243.09     INFLOWS - OUTFLOWS =         -44861.61
             --------                                   --------

 TOTAL STORAGE CHANGE =         199724.29         STORAGE CHANGE =         -44780.96
       --------------                             --------------
         LAND SURFACE =           2252.39           LAND SURFACE =          -3155.26
            SOIL ZONE =         662439.06              SOIL ZONE =         -19833.87
     UNSATURATED ZONE =        -418622.14       UNSATURATED ZONE =         -18801.02
       SATURATED ZONE =         -46345.02         SATURATED ZONE =          -2990.81

 OVERALL BUDGET ERROR =          -1481.21           BUDGET ERROR =            -80.65


  PERCENT DISCREPANCY =             -0.20    PERCENT DISCREPANCY =             -0.18



1
 SUMMARY VOLUMETRIC BUDGET FOR GSFLOW 
 DATE: 10 28 1980              CUMULATIVE TIME STEP:      28
 MODFLOW STRESS PERIOD      2     CURRENT TIME STEP:      28     ITERATIONS:       6

 -----------------------------------------------------------------------------------

   CUMULATIVE VOLUMES               L**3   RATES FOR THIS TIME STEP           L**3/T
   ------------------                      ------------------------

                                     IN                                         IN
                                     --                                         --
        PRECIPITATION =        1070899.96          PRECIPITATION =                  
           STREAMFLOW =                               STREAMFLOW =                  
     GW BOUNDARY FLOW =                         GW BOUNDARY FLOW =                  


                                    OUT                                        OUT
                                    ---                                        ---
   EVAPOTRANSPIRATION =         557225.31     EVAPOTRANSPIRATION =          23594.69
           STREAMFLOW =         199834.77             STREAMFLOW =           7989.32
     GW BOUNDARY FLOW =          18165.91       GW BOUNDARY FLOW =            648.81

   INFLOWS - OUTFLOWS =         295673.97     INFLOWS - OUTFLOWS =         -32232.82
             --------                                   --------

 TOTAL STORAGE CHANGE =         297726.81         STORAGE CHANGE =         -32145.87
       --------------                             --------------
         LAND SURFACE =          24622.16           LAND SURFACE =         -30947.62
            SOIL ZONE =         889246.88              SOIL ZONE =          20269.32
     UNSATURATED ZONE =        -547225.26       UNSATURATED ZONE =         -17994.12
       SATURATED ZONE =         -68916.98         SATURATED ZONE =          -3473.45

 OVERALL BUDGET ERROR =          -2052.84           BUDGET ERROR =            -86.94


  PERCENT DISCREPANCY =             -0.19    PERCENT DISCREPANCY =             -0.27



1
 SUMMARY VOLUMETRIC BUDGET FOR GSFLOW 
 DATE: 11 04 1980              CUMULATIVE TIME STEP:      35
 MODFLOW STRESS PERIOD      2     CURRENT TIME STEP:      35     ITERATIONS:       8

 -----------------------------------------------------------------------------------

   CUMULATIVE VOLUMES               L**3   RATES FOR THIS TIME STEP           L**3/T
   ------------------                      ------------------------

                                     IN                                         IN
                                     --                                         --
        PRECIPITATION =        1070899.96          PRECIPITATION =                  
           STREAMFLOW =                               STREAMFLOW =                  
     GW BOUNDARY FLOW =                         GW BOUNDARY FLOW =                  


                                    OUT                                        OUT
                                    ---                                        ---
   EVAPOTRANSPIRATION =         854959.49     EVAPOTRANSPIRATION =          38437.82
           STREAMFLOW =         252302.64             STREAMFLOW =           7018.30
     GW BOUNDARY FLOW =          22706.92       GW BOUNDARY FLOW =            648.64

   INFLOWS - OUTFLOWS =         -59069.08     INFLOWS - OUTFLOWS =         -46104.76
             --------                                   --------

 TOTAL STORAGE CHANGE =         -56526.13         STORAGE CHANGE =         -46042.74
       --------------                             --------------
         LAND SURFACE =                             LAND SURFACE =                  
            SOIL ZONE =         710230.81              SOIL ZONE =         -24516.75
     UNSATURATED ZONE =        -670653.07       UNSATURATED ZONE =         -17361.09
       SATURATED ZONE =         -96103.86         SATURATED ZONE =          -4164.90

 OVERALL BUDGET ERROR =          -2542.96           BUDGET ERROR =            -62.02


  PERCENT DISCREPANCY =             -0.23    PERCENT DISCREPANCY =             -0.13



1
 SUMMARY VOLUMETRIC BUDGET FOR GSFLOW 
 DATE: 11 11 1980              CUMULATIVE TIME STEP:      42
 MODFLOW STRESS PERIOD      2     CURRENT TIME STEP:      42     ITERATIONS:       7

 -----------------------------------------------------------------------------------

   CUMULATIVE VOLUMES               L**3   RATES FOR THIS TIME STEP           L**3/T
   ------------------                      ------------------------

                                     IN                                         IN
                                     --                                         --
        PRECIPITATION =        1573759.34          PRECIPITATION =         255182.10
           STREAMFLOW =                               STREAMFLOW =                  
     GW BOUNDARY FLOW =                         GW BOUNDARY FLOW =                  


                                    OUT                                        OUT
                                    ---                                        ---
   EVAPOTRANSPIRATION =        1066449.49     EVAPOTRANSPIRATION =          14941.35
           STREAMFLOW =         308270.96             STREAMFLOW =          10769.44
     GW BOUNDARY FLOW =          27247.64       GW BOUNDARY FLOW =            648.84

   INFLOWS - OUTFLOWS =         171791.24     INFLOWS - OUTFLOWS =         228822.47
             --------                                   --------

 TOTAL STORAGE CHANGE =         174880.25         STORAGE CHANGE =         228887.69
       --------------                             --------------
         LAND SURFACE =          78611.70           LAND SURFACE =          76658.21
            SOIL ZONE =        1011575.14              SOIL ZONE =         172853.07
     UNSATURATED ZONE =        -789255.03       UNSATURATED ZONE =         -16535.00
       SATURATED ZONE =        -126051.56         SATURATED ZONE =          -4088.60

 OVERALL BUDGET ERROR =          -3089.01           BUDGET ERROR =            -65.21


  PERCENT DISCREPANCY =             -0.20    PERCENT DISCREPANCY =             -0.03



1
 SUMMARY VOLUMETRIC BUDGET FOR GSFLOW 
 DATE: 11 18 1980              CUMULATIVE TIME STEP:      49
 MODFLOW STRESS PERIOD      2     CURRENT TIME STEP:      49     ITERATIONS:       6

 -----------------------------------------------------------------------------------

   CUMULATIVE VOLUMES               L**3   RATES FOR THIS TIME STEP           L**3/T
   ------------------                      ------------------------

                                     IN                                         IN
                                     --                                         --
        PRECIPITATION =        1573759.34          PRECIPITATION =                  
           STREAMFLOW =                               STREAMFLOW =                  
     GW BOUNDARY FLOW =                         GW BOUNDARY FLOW =                  


                                    OUT                                        OUT
                                    ---                                        ---
   EVAPOTRANSPIRATION =        1154910.86     EVAPOTRANSPIRATION =          16640.31
           STREAMFLOW =         371175.95             STREAMFLOW =           9356.96
     GW BOUNDARY FLOW =          31789.52       GW BOUNDARY FLOW =            648.86

   INFLOWS - OUTFLOWS =          15883.01     INFLOWS - OUTFLOWS =         -26646.13
             --------                                   --------

 TOTAL STORAGE CHANGE =          19605.42         STORAGE CHANGE =         -26545.99
       --------------                             --------------
         LAND SURFACE =           8650.47           LAND SURFACE =          -6201.94
            SOIL ZONE =        1072807.03              SOIL ZONE =            474.74
     UNSATURATED ZONE =        -903178.01       UNSATURATED ZONE =         -16031.61
       SATURATED ZONE =        -158674.07         SATURATED ZONE =          -4787.17

 OVERALL BUDGET ERROR =          -3722.41           BUDGET ERROR =           -100.15


  PERCENT DISCREPANCY =             -0.24    PERCENT DISCREPANCY =             -0.38



1
 SUMMARY VOLUMETRIC BUDGET FOR GSFLOW 
 DATE: 11 25 1980              CUMULATIVE TIME STEP:      56
 MODFLOW STRESS PERIOD      2     CURRENT TIME STEP:      56     ITERATIONS:       8

 -----------------------------------------------------------------------------------

   CUMULATIVE VOLUMES               L**3   RATES FOR THIS TIME STEP           L**3/T
   ------------------                      ------------------------

                                     IN                                         IN
                                     --                                         --
        PRECIPITATION =        1648813.76          PRECIPITATION =                  
           STREAMFLOW =                               STREAMFLOW =                  
     GW BOUNDARY FLOW =                         GW BOUNDARY FLOW =                  


                                    OUT                                        OUT
                                    ---                                        ---
   EVAPOTRANSPIRATION =        1230203.47     EVAPOTRANSPIRATION =           8792.89
           STREAMFLOW =         438358.64             STREAMFLOW =           9949.36
     GW BOUNDARY FLOW =          36331.80       GW BOUNDARY FLOW =            648.93

   INFLOWS - OUTFLOWS =         -56080.15     INFLOWS - OUTFLOWS =         -19391.18
             --------                                   --------

 TOTAL STORAGE CHANGE =         -51805.04         STORAGE CHANGE =         -19327.08
       --------------                             --------------
         LAND SURFACE =          55166.56           LAND SURFACE =          -8744.72
            SOIL ZONE =        1100543.56              SOIL ZONE =          10159.59
     UNSATURATED ZONE =       -1012811.27       UNSATURATED ZONE =         -15403.94
       SATURATED ZONE =        -194703.90         SATURATED ZONE =          -5338.00

 OVERALL BUDGET ERROR =          -4275.10           BUDGET ERROR =            -64.11


  PERCENT DISCREPANCY =             -0.25    PERCENT DISCREPANCY =             -0.33



1
 SUMMARY VOLUMETRIC BUDGET FOR GSFLOW 
 DATE: 12 02 1980              CUMULATIVE TIME STEP:      63
 MODFLOW STRESS PERIOD      2     CURRENT TIME STEP:      63     ITERATIONS:       8

 -----------------------------------------------------------------------------------

   CUMULATIVE VOLUMES               L**3   RATES FOR THIS TIME STEP           L**3/T
   ------------------                      ------------------------

                                     IN                                         IN
                                     --                                         --
        PRECIPITATION =        2076620.74          PRECIPITATION =                  
           STREAMFLOW =                               STREAMFLOW =                  
     GW BOUNDARY FLOW =                         GW BOUNDARY FLOW =                  


                                    OUT                                        OUT
                                    ---                                        ---
   EVAPOTRANSPIRATION =        1423644.24     EVAPOTRANSPIRATION =          34188.85
           STREAMFLOW =         523307.62             STREAMFLOW =          15235.48
     GW BOUNDARY FLOW =          40875.74       GW BOUNDARY FLOW =            649.44

   INFLOWS - OUTFLOWS =          88793.13     INFLOWS - OUTFLOWS =         -50073.77
             --------                                   --------

 TOTAL STORAGE CHANGE =          93499.39         STORAGE CHANGE =         -50018.55
       --------------                             --------------
         LAND SURFACE =         152558.40           LAND SURFACE =         -75202.38
            SOIL ZONE =        1286008.56              SOIL ZONE =          42854.31
     UNSATURATED ZONE =       -1114354.98       UNSATURATED ZONE =         -13043.81
       SATURATED ZONE =        -230712.59         SATURATED ZONE =          -4626.68

 OVERALL BUDGET ERROR =          -4706.26           BUDGET ERROR =            -55.22


  PERCENT DISCREPANCY =             -0.23    PERCENT DISCREPANCY =             -0.11



1
 SUMMARY VOLUMETRIC BUDGET FOR GSFLOW 
 DATE: 12 09 1980              CUMULATIVE TIME STEP:      70
 MODFLOW STRESS PERIOD      2     CURRENT TIME STEP:      70     ITERATIONS:       8

 -----------------------------------------------------------------------------------

   CUMULATIVE VOLUMES               L**3   RATES FOR THIS TIME STEP           L**3/T
   ------------------                      ------------------------

                                     IN                                         IN
                                     --                                         --
        PRECIPITATION =        4284363.13          PRECIPITATION =                  
           STREAMFLOW =                               STREAMFLOW =                  
     GW BOUNDARY FLOW =                         GW BOUNDARY FLOW =                  


                                    OUT                                        OUT
                                    ---                                        ---
   EVAPOTRANSPIRATION =        1447062.88     EVAPOTRANSPIRATION =           2942.37
           STREAMFLOW =         622576.81             STREAMFLOW =          14459.92
     GW BOUNDARY FLOW =          45422.60       GW BOUNDARY FLOW =            649.64

   INFLOWS - OUTFLOWS =        2169300.83     INFLOWS - OUTFLOWS =         -18051.93
             --------                                   --------

 TOTAL STORAGE CHANGE =        2174481.23         STORAGE CHANGE =         -18003.82
       --------------                             --------------
         LAND SURFACE =        2335225.13           LAND SURFACE =          -2942.37
            SOIL ZONE =        1321839.74              SOIL ZONE =           5169.35
     UNSATURATED ZONE =       -1212717.07       UNSATURATED ZONE =         -14219.87
       SATURATED ZONE =        -269866.58         SATURATED ZONE =          -6010.93

 OVERALL BUDGET ERROR =          -5180.39           BUDGET ERROR =            -48.11


  PERCENT DISCREPANCY =             -0.12    PERCENT DISCREPANCY =             -0.27



1
 SUMMARY VOLUMETRIC BUDGET FOR GSFLOW 
 DATE: 12 16 1980              CUMULATIVE TIME STEP:      77
 MODFLOW STRESS PERIOD      2     CURRENT TIME STEP:      77     ITERATIONS:       7

 -----------------------------------------------------------------------------------

   CUMULATIVE VOLUMES               L**3   RATES FOR THIS TIME STEP           L**3/T
   ------------------                      ------------------------

                                     IN                                         IN
                                     --                                         --
        PRECIPITATION =        4284363.13          PRECIPITATION =                  
           STREAMFLOW =                               STREAMFLOW =                  
     GW BOUNDARY FLOW =                         GW BOUNDARY FLOW =                  


                                    OUT                                        OUT
                                    ---                                        ---
   EVAPOTRANSPIRATION =        1589062.50     EVAPOTRANSPIRATION =          33888.91
           STREAMFLOW =         742118.83             STREAMFLOW =          24743.96
     GW BOUNDARY FLOW =          49971.18       GW BOUNDARY FLOW =            650.23

   INFLOWS - OUTFLOWS =        1903210.62     INFLOWS - OUTFLOWS =         -59283.10
             --------                                   --------

 TOTAL STORAGE CHANGE =        1908818.36         STORAGE CHANGE =         -59212.71
       --------------                             --------------
         LAND SURFACE =        2023963.99           LAND SURFACE =        -129017.63
            SOIL ZONE =        1498052.64              SOIL ZONE =          83497.76
     UNSATURATED ZONE =       -1302769.98       UNSATURATED ZONE =          -9208.45
       SATURATED ZONE =        -310428.29         SATURATED ZONE =          -4484.40

 OVERALL BUDGET ERROR =          -5607.74           BUDGET ERROR =            -70.39


  PERCENT DISCREPANCY =             -0.13    PERCENT DISCREPANCY =             -0.12



1
 SUMMARY VOLUMETRIC BUDGET FOR GSFLOW 
 DATE: 12 23 1980              CUMULATIVE TIME STEP:      84
 MODFLOW STRESS PERIOD      2     CURRENT TIME STEP:      84     ITERATIONS:       9

 -----------------------------------------------------------------------------------

   CUMULATIVE VOLUMES               L**3   RATES FOR THIS TIME STEP           L**3/T
   ------------------                      ------------------------

                                     IN                                         IN
                                     --                                         --
        PRECIPITATION =        4516755.31          PRECIPITATION =                  
           STREAMFLOW =                               STREAMFLOW =                  
     GW BOUNDARY FLOW =                         GW BOUNDARY FLOW =                  


                                    OUT                                        OUT
                                    ---                                        ---
   EVAPOTRANSPIRATION =        1795114.88     EVAPOTRANSPIRATION =          35140.80
           STREAMFLOW =         968025.25             STREAMFLOW =          30090.57
     GW BOUNDARY FLOW =          54531.42       GW BOUNDARY FLOW =            651.90

   INFLOWS - OUTFLOWS =        1699083.77     INFLOWS - OUTFLOWS =         -65883.27
             --------                                   --------

 TOTAL STORAGE CHANGE =        1705002.86         STORAGE CHANGE =         -65848.94
       --------------                             --------------
         LAND SURFACE =        1433308.52           LAND SURFACE =         -48192.94
            SOIL ZONE =        1956963.45              SOIL ZONE =          -6624.34
     UNSATURATED ZONE =       -1346313.81       UNSATURATED ZONE =          -6290.86
       SATURATED ZONE =        -338955.30         SATURATED ZONE =          -4740.79

 OVERALL BUDGET ERROR =          -5919.09           BUDGET ERROR =            -34.33


  PERCENT DISCREPANCY =             -0.13    PERCENT DISCREPANCY =             -0.05



1
 SUMMARY VOLUMETRIC BUDGET FOR GSFLOW 
 DATE: 12 30 1980              CUMULATIVE TIME STEP:      91
 MODFLOW STRESS PERIOD      2     CURRENT TIME STEP:      91     ITERATIONS:       9

 -----------------------------------------------------------------------------------

   CUMULATIVE VOLUMES               L**3   RATES FOR THIS TIME STEP           L**3/T
   ------------------                      ------------------------

                                     IN                                         IN
                                     --                                         --
        PRECIPITATION =        4516755.31          PRECIPITATION =                  
           STREAMFLOW =                               STREAMFLOW =                  
     GW BOUNDARY FLOW =                         GW BOUNDARY FLOW =                  


                                    OUT                                        OUT
                                    ---                                        ---
   EVAPOTRANSPIRATION =        2155741.23     EVAPOTRANSPIRATION =          45887.39
           STREAMFLOW =        1211958.82             STREAMFLOW =          27166.03
     GW BOUNDARY FLOW =          59097.99       GW BOUNDARY FLOW =            652.35

   INFLOWS - OUTFLOWS =        1089957.27     INFLOWS - OUTFLOWS =         -73705.77
             --------                                   --------

 TOTAL STORAGE CHANGE =        1096060.75         STORAGE CHANGE =         -73682.15
       --------------                             --------------
         LAND SURFACE =         641176.37           LAND SURFACE =         -40371.69
            SOIL ZONE =        2181736.12              SOIL ZONE =         -23717.72
     UNSATURATED ZONE =       -1361626.90       UNSATURATED ZONE =          -5205.55
       SATURATED ZONE =        -365224.85         SATURATED ZONE =          -4387.19

 OVERALL BUDGET ERROR =          -6103.48           BUDGET ERROR =            -23.62


  PERCENT DISCREPANCY =             -0.14    PERCENT DISCREPANCY =             -0.03



1
 SUMMARY VOLUMETRIC BUDGET FOR GSFLOW 
 DATE: 01 06 1981              CUMULATIVE TIME STEP:      98
 MODFLOW STRESS PERIOD      2     CURRENT TIME STEP:      98     ITERATIONS:       8

 -----------------------------------------------------------------------------------

   CUMULATIVE VOLUMES               L**3   RATES FOR THIS TIME STEP           L**3/T
   ------------------                      ------------------------

                                     IN                                         IN
                                     --                                         --
        PRECIPITATION =        5004445.82          PRECIPITATION =                  
           STREAMFLOW =                               STREAMFLOW =                  
     GW BOUNDARY FLOW =                         GW BOUNDARY FLOW =                  


                                    OUT                                        OUT
                                    ---                                        ---
   EVAPOTRANSPIRATION =        2383663.37     EVAPOTRANSPIRATION =          21388.47
           STREAMFLOW =        1365806.47             STREAMFLOW =          21180.17
     GW BOUNDARY FLOW =          63659.51       GW BOUNDARY FLOW =            651.25

   INFLOWS - OUTFLOWS =        1191316.47     INFLOWS - OUTFLOWS =         -43219.88
             --------                                   --------

 TOTAL STORAGE CHANGE =        1197636.31         STORAGE CHANGE =         -43183.31
       --------------                             --------------
         LAND SURFACE =         837061.68           LAND SURFACE =         -30417.13
            SOIL ZONE =        2192536.95              SOIL ZONE =           3031.62
     UNSATURATED ZONE =       -1428729.49       UNSATURATED ZONE =         -10080.62
       SATURATED ZONE =        -403232.82         SATURATED ZONE =          -5717.18

 OVERALL BUDGET ERROR =          -6319.84           BUDGET ERROR =            -36.57


  PERCENT DISCREPANCY =             -0.13    PERCENT DISCREPANCY =             -0.08



1
 SUMMARY VOLUMETRIC BUDGET FOR GSFLOW 
 DATE: 01 13 1981              CUMULATIVE TIME STEP:     105
 MODFLOW STRESS PERIOD      2     CURRENT TIME STEP:     105     ITERATIONS:       7

 -----------------------------------------------------------------------------------

   CUMULATIVE VOLUMES               L**3   RATES FOR THIS TIME STEP           L**3/T
   ------------------                      ------------------------

                                     IN                                         IN
                                     --                                         --
        PRECIPITATION =        5004445.82          PRECIPITATION =                  
           STREAMFLOW =                               STREAMFLOW =                  
     GW BOUNDARY FLOW =                         GW BOUNDARY FLOW =                  


                                    OUT                                        OUT
                                    ---                                        ---
   EVAPOTRANSPIRATION =        2601178.22     EVAPOTRANSPIRATION =          44454.58
           STREAMFLOW =        1513559.19             STREAMFLOW =          20001.63
     GW BOUNDARY FLOW =          68216.62       GW BOUNDARY FLOW =            650.83

   INFLOWS - OUTFLOWS =         821491.79     INFLOWS - OUTFLOWS =         -65107.04
             --------                                   --------

 TOTAL STORAGE CHANGE =         828200.40         STORAGE CHANGE =         -65045.38
       --------------                             --------------
         LAND SURFACE =         626703.68           LAND SURFACE =         -38989.03
            SOIL ZONE =        2141703.60              SOIL ZONE =         -10386.55
     UNSATURATED ZONE =       -1493717.42       UNSATURATED ZONE =          -9175.22
       SATURATED ZONE =        -446489.46         SATURATED ZONE =          -6494.58

 OVERALL BUDGET ERROR =          -6708.61           BUDGET ERROR =            -61.67


  PERCENT DISCREPANCY =             -0.13    PERCENT DISCREPANCY =             -0.09



1
 SUMMARY VOLUMETRIC BUDGET FOR GSFLOW 
 DATE: 01 20 1981              CUMULATIVE TIME STEP:     112
 MODFLOW STRESS PERIOD      2     CURRENT TIME STEP:     112     ITERATIONS:       8

 -----------------------------------------------------------------------------------

   CUMULATIVE VOLUMES               L**3   RATES FOR THIS TIME STEP           L**3/T
   ------------------                      ------------------------

                                     IN                                         IN
                                     --                                         --
        PRECIPITATION =        5170468.48          PRECIPITATION =          41503.16
           STREAMFLOW =                               STREAMFLOW =                  
     GW BOUNDARY FLOW =                         GW BOUNDARY FLOW =                  


                                    OUT                                        OUT
                                    ---                                        ---
   EVAPOTRANSPIRATION =        2883448.00     EVAPOTRANSPIRATION =          35212.06
           STREAMFLOW =        1654845.50             STREAMFLOW =          20081.36
     GW BOUNDARY FLOW =          72771.39       GW BOUNDARY FLOW =            650.64

   INFLOWS - OUTFLOWS =         559403.59     INFLOWS - OUTFLOWS =         -14440.90
             --------                                   --------

 TOTAL STORAGE CHANGE =         566441.42         STORAGE CHANGE =         -14405.82
       --------------                             --------------
         LAND SURFACE =         436309.37           LAND SURFACE =           4324.83
            SOIL ZONE =        2147621.59              SOIL ZONE =         -10132.88
     UNSATURATED ZONE =       -1526441.80       UNSATURATED ZONE =          -1920.88
       SATURATED ZONE =        -491047.73         SATURATED ZONE =          -6676.89

 OVERALL BUDGET ERROR =          -7037.83           BUDGET ERROR =            -35.08


  PERCENT DISCREPANCY =             -0.14    PERCENT DISCREPANCY =             -0.06



1
 SUMMARY VOLUMETRIC BUDGET FOR GSFLOW 
 DATE: 01 27 1981              CUMULATIVE TIME STEP:     119
 MODFLOW STRESS PERIOD      2     CURRENT TIME STEP:     119     ITERATIONS:       9

 -----------------------------------------------------------------------------------

   CUMULATIVE VOLUMES               L**3   RATES FOR THIS TIME STEP           L**3/T
   ------------------                      ------------------------

                                     IN                                         IN
                                     --                                         --
        PRECIPITATION =        8646542.90          PRECIPITATION =        2936504.96
           STREAMFLOW =                               STREAMFLOW =                  
     GW BOUNDARY FLOW =                         GW BOUNDARY FLOW =                  


                                    OUT                                        OUT
                                    ---                                        ---
   EVAPOTRANSPIRATION =        3118016.19     EVAPOTRANSPIRATION =          13121.10
           STREAMFLOW =        1800219.30             STREAMFLOW =          18659.20
     GW BOUNDARY FLOW =          77325.71       GW BOUNDARY FLOW =            650.44

   INFLOWS - OUTFLOWS =        3650981.70     INFLOWS - OUTFLOWS =        2904074.22
             --------                                   --------

 TOTAL STORAGE CHANGE =        3658167.69         STORAGE CHANGE =        2904099.48
       --------------                             --------------
         LAND SURFACE =        3540208.69           LAND SURFACE =        2923350.57
            SOIL ZONE =        2170191.64              SOIL ZONE =          -7607.37
     UNSATURATED ZONE =       -1515767.47       UNSATURATED ZONE =          -4734.42
       SATURATED ZONE =        -536465.16         SATURATED ZONE =          -6909.30

 OVERALL BUDGET ERROR =          -7185.99           BUDGET ERROR =            -25.26


  PERCENT DISCREPANCY =             -0.08    PERCENT DISCREPANCY =             -0.00



1
 SUMMARY VOLUMETRIC BUDGET FOR GSFLOW 
 DATE: 02 03 1981              CUMULATIVE TIME STEP:     126
 MODFLOW STRESS PERIOD      2     CURRENT TIME STEP:     126     ITERATIONS:       9

 -----------------------------------------------------------------------------------

   CUMULATIVE VOLUMES               L**3   RATES FOR THIS TIME STEP           L**3/T
   ------------------                      ------------------------

                                     IN                                         IN
                                     --                                         --
        PRECIPITATION =        1.1739D+07          PRECIPITATION =                  
           STREAMFLOW =                               STREAMFLOW =                  
     GW BOUNDARY FLOW =                         GW BOUNDARY FLOW =                  


                                    OUT                                        OUT
                                    ---                                        ---
   EVAPOTRANSPIRATION =        3154529.08     EVAPOTRANSPIRATION =           6975.55
           STREAMFLOW =        1926751.99             STREAMFLOW =          17968.79
     GW BOUNDARY FLOW =          81877.80       GW BOUNDARY FLOW =            650.25

   INFLOWS - OUTFLOWS =        6575538.91     INFLOWS - OUTFLOWS =         -25594.58
             --------                                   --------

 TOTAL STORAGE CHANGE =        6582958.89         STORAGE CHANGE =         -25567.83
       --------------                             --------------
         LAND SURFACE =        6595850.65           LAND SURFACE =          -6975.55
            SOIL ZONE =        2159040.35              SOIL ZONE =            453.18
     UNSATURATED ZONE =       -1583654.05       UNSATURATED ZONE =         -11335.14
       SATURATED ZONE =        -588278.07         SATURATED ZONE =          -7710.32

 OVERALL BUDGET ERROR =          -7419.98           BUDGET ERROR =            -26.75


  PERCENT DISCREPANCY =             -0.06    PERCENT DISCREPANCY =             -0.10



1
 SUMMARY VOLUMETRIC BUDGET FOR GSFLOW 
 DATE: 02 10 1981              CUMULATIVE TIME STEP:     133
 MODFLOW STRESS PERIOD      2     CURRENT TIME STEP:     133     ITERATIONS:       7

 -----------------------------------------------------------------------------------

   CUMULATIVE VOLUMES               L**3   RATES FOR THIS TIME STEP           L**3/T
   ------------------                      ------------------------

                                     IN                                         IN
                                     --                                         --
        PRECIPITATION =        1.1838D+07          PRECIPITATION =                  
           STREAMFLOW =                               STREAMFLOW =                  
     GW BOUNDARY FLOW =                         GW BOUNDARY FLOW =                  


                                    OUT                                        OUT
                                    ---                                        ---
   EVAPOTRANSPIRATION =        3279930.32     EVAPOTRANSPIRATION =          32880.24
           STREAMFLOW =        2052799.87             STREAMFLOW =          18033.62
     GW BOUNDARY FLOW =          86429.54       GW BOUNDARY FLOW =            650.24

   INFLOWS - OUTFLOWS =        6419103.50     INFLOWS - OUTFLOWS =         -51564.10
             --------                                   --------

 TOTAL STORAGE CHANGE =        6426788.93         STORAGE CHANGE =         -51491.14
       --------------                             --------------
         LAND SURFACE =        6570014.87           LAND SURFACE =         -32880.24
            SOIL ZONE =        2163253.27              SOIL ZONE =            571.52
     UNSATURATED ZONE =       -1661794.55       UNSATURATED ZONE =         -10825.31
       SATURATED ZONE =        -644684.66         SATURATED ZONE =          -8357.11

 OVERALL BUDGET ERROR =          -7685.43           BUDGET ERROR =            -72.95


  PERCENT DISCREPANCY =             -0.06    PERCENT DISCREPANCY =             -0.14



1
 SUMMARY VOLUMETRIC BUDGET FOR GSFLOW 
 DATE: 02 17 1981              CUMULATIVE TIME STEP:     140
 MODFLOW STRESS PERIOD      2     CURRENT TIME STEP:     140     ITERATIONS:      14

 -----------------------------------------------------------------------------------

   CUMULATIVE VOLUMES               L**3   RATES FOR THIS TIME STEP           L**3/T
   ------------------                      ------------------------

                                     IN                                         IN
                                     --                                         --
        PRECIPITATION =        1.2765D+07          PRECIPITATION =          68928.68
           STREAMFLOW =                               STREAMFLOW =                  
     GW BOUNDARY FLOW =                         GW BOUNDARY FLOW =                  


                                    OUT                                        OUT
                                    ---                                        ---
   EVAPOTRANSPIRATION =        3618019.87     EVAPOTRANSPIRATION =          68604.82
           STREAMFLOW =        2593964.86             STREAMFLOW =         124817.82
     GW BOUNDARY FLOW =          91003.31       GW BOUNDARY FLOW =            656.82

   INFLOWS - OUTFLOWS =        6461992.62     INFLOWS - OUTFLOWS =        -125150.78
             --------                                   --------

 TOTAL STORAGE CHANGE =        6469963.55         STORAGE CHANGE =        -125135.03
       --------------                             --------------
         LAND SURFACE =        5590136.74           LAND SURFACE =        -278668.69
            SOIL ZONE =        2957732.81              SOIL ZONE =          72138.74
     UNSATURATED ZONE =       -1416851.93       UNSATURATED ZONE =          78941.16
       SATURATED ZONE =        -661054.07         SATURATED ZONE =           2453.77

 OVERALL BUDGET ERROR =          -7970.93           BUDGET ERROR =            -15.76


  PERCENT DISCREPANCY =             -0.06    PERCENT DISCREPANCY =             -0.01



1
 SUMMARY VOLUMETRIC BUDGET FOR GSFLOW 
 DATE: 02 24 1981              CUMULATIVE TIME STEP:     147
 MODFLOW STRESS PERIOD      2     CURRENT TIME STEP:     147     ITERATIONS:      14

 -----------------------------------------------------------------------------------

   CUMULATIVE VOLUMES               L**3   RATES FOR THIS TIME STEP           L**3/T
   ------------------                      ------------------------

                                     IN                                         IN
                                     --                                         --
        PRECIPITATION =        1.3179D+07          PRECIPITATION =         344647.71
           STREAMFLOW =                               STREAMFLOW =                  
     GW BOUNDARY FLOW =                         GW BOUNDARY FLOW =                  


                                    OUT                                        OUT
                                    ---                                        ---
   EVAPOTRANSPIRATION =        3959342.15     EVAPOTRANSPIRATION =          18832.86
           STREAMFLOW =        3151384.99             STREAMFLOW =          52021.09
     GW BOUNDARY FLOW =          95596.36       GW BOUNDARY FLOW =            655.14

   INFLOWS - OUTFLOWS =        5972234.96     INFLOWS - OUTFLOWS =         273138.62
             --------                                   --------

 TOTAL STORAGE CHANGE =        5980169.37         STORAGE CHANGE =         273142.30
       --------------                             --------------
         LAND SURFACE =        4984331.51           LAND SURFACE =         286391.25
            SOIL ZONE =        2697188.56              SOIL ZONE =         -43322.78
     UNSATURATED ZONE =       -1063805.36       UNSATURATED ZONE =          27645.63
       SATURATED ZONE =        -637545.33         SATURATED ZONE =           2428.21

 OVERALL BUDGET ERROR =          -7934.41           BUDGET ERROR =             -3.68


  PERCENT DISCREPANCY =             -0.06    PERCENT DISCREPANCY =             -0.00



1
 SUMMARY VOLUMETRIC BUDGET FOR GSFLOW 
 DATE: 03 03 1981              CUMULATIVE TIME STEP:     154
 MODFLOW STRESS PERIOD      2     CURRENT TIME STEP:     154     ITERATIONS:      11

 -----------------------------------------------------------------------------------

   CUMULATIVE VOLUMES               L**3   RATES FOR THIS TIME STEP           L**3/T
   ------------------                      ------------------------

                                     IN                                         IN
                                     --                                         --
        PRECIPITATION =        1.3447D+07          PRECIPITATION =                  
           STREAMFLOW =                               STREAMFLOW =                  
     GW BOUNDARY FLOW =                         GW BOUNDARY FLOW =                  


                                    OUT                                        OUT
                                    ---                                        ---
   EVAPOTRANSPIRATION =        4120023.74     EVAPOTRANSPIRATION =          45353.37
           STREAMFLOW =        3375191.21             STREAMFLOW =          27756.10
     GW BOUNDARY FLOW =         100169.25       GW BOUNDARY FLOW =            652.32

   INFLOWS - OUTFLOWS =        5851234.59     INFLOWS - OUTFLOWS =         -73761.79
             --------                                   --------

 TOTAL STORAGE CHANGE =        5859065.90         STORAGE CHANGE =         -73781.25
       --------------                             --------------
         LAND SURFACE =        5068234.96           LAND SURFACE =         -66032.09
            SOIL ZONE =        2489410.20              SOIL ZONE =           2838.54
     UNSATURATED ZONE =       -1056095.19       UNSATURATED ZONE =          -8518.64
       SATURATED ZONE =        -642484.07         SATURATED ZONE =          -2069.07

 OVERALL BUDGET ERROR =          -7831.31           BUDGET ERROR =             19.46


  PERCENT DISCREPANCY =             -0.06    PERCENT DISCREPANCY =              0.03



1
 SUMMARY VOLUMETRIC BUDGET FOR GSFLOW 
 DATE: 03 10 1981              CUMULATIVE TIME STEP:     161
 MODFLOW STRESS PERIOD      2     CURRENT TIME STEP:     161     ITERATIONS:      10

 -----------------------------------------------------------------------------------

   CUMULATIVE VOLUMES               L**3   RATES FOR THIS TIME STEP           L**3/T
   ------------------                      ------------------------

                                     IN                                         IN
                                     --                                         --
        PRECIPITATION =        1.3493D+07          PRECIPITATION =                  
           STREAMFLOW =                               STREAMFLOW =                  
     GW BOUNDARY FLOW =                         GW BOUNDARY FLOW =                  


                                    OUT                                        OUT
                                    ---                                        ---
   EVAPOTRANSPIRATION =        4465806.19     EVAPOTRANSPIRATION =          72809.14
           STREAMFLOW =        3611070.09             STREAMFLOW =          43638.28
     GW BOUNDARY FLOW =         104735.29       GW BOUNDARY FLOW =            652.93

   INFLOWS - OUTFLOWS =        5311342.95     INFLOWS - OUTFLOWS =        -117100.35
             --------                                   --------

 TOTAL STORAGE CHANGE =        5319108.52         STORAGE CHANGE =        -117109.17
       --------------                             --------------
         LAND SURFACE =        4391776.94           LAND SURFACE =        -169082.62
            SOIL ZONE =        2603419.13              SOIL ZONE =          28948.65
     UNSATURATED ZONE =       -1021630.01       UNSATURATED ZONE =          23450.84
       SATURATED ZONE =        -654457.54         SATURATED ZONE =           -426.04

 OVERALL BUDGET ERROR =          -7765.57           BUDGET ERROR =              8.82


  PERCENT DISCREPANCY =             -0.06    PERCENT DISCREPANCY =              0.01



1
 SUMMARY VOLUMETRIC BUDGET FOR GSFLOW 
 DATE: 03 17 1981              CUMULATIVE TIME STEP:     168
 MODFLOW STRESS PERIOD      2     CURRENT TIME STEP:     168     ITERATIONS:       9

 -----------------------------------------------------------------------------------

   CUMULATIVE VOLUMES               L**3   RATES FOR THIS TIME STEP           L**3/T
   ------------------                      ------------------------

                                     IN                                         IN
                                     --                                         --
        PRECIPITATION =        1.3745D+07          PRECIPITATION =                  
           STREAMFLOW =                               STREAMFLOW =                  
     GW BOUNDARY FLOW =                         GW BOUNDARY FLOW =                  


                                    OUT                                        OUT
                                    ---                                        ---
   EVAPOTRANSPIRATION =        4834210.92     EVAPOTRANSPIRATION =          40234.43
           STREAMFLOW =        3838018.28             STREAMFLOW =          24123.27
     GW BOUNDARY FLOW =         109302.57       GW BOUNDARY FLOW =            651.88

   INFLOWS - OUTFLOWS =        4962971.05     INFLOWS - OUTFLOWS =         -65009.57
             --------                                   --------

 TOTAL STORAGE CHANGE =        4970645.97         STORAGE CHANGE =         -65015.07
       --------------                             --------------
         LAND SURFACE =        4202563.01           LAND SURFACE =         -39897.20
            SOIL ZONE =        2437966.71              SOIL ZONE =          -5412.25
     UNSATURATED ZONE =        -999565.64       UNSATURATED ZONE =         -15649.58
       SATURATED ZONE =        -670318.11         SATURATED ZONE =          -4056.04

 OVERALL BUDGET ERROR =          -7674.93           BUDGET ERROR =              5.50


  PERCENT DISCREPANCY =             -0.06    PERCENT DISCREPANCY =              0.01



1
 SUMMARY VOLUMETRIC BUDGET FOR GSFLOW 
 DATE: 03 24 1981              CUMULATIVE TIME STEP:     175
 MODFLOW STRESS PERIOD      2     CURRENT TIME STEP:     175     ITERATIONS:       9

 -----------------------------------------------------------------------------------

   CUMULATIVE VOLUMES               L**3   RATES FOR THIS TIME STEP           L**3/T
   ------------------                      ------------------------

                                     IN                                         IN
                                     --                                         --
        PRECIPITATION =        1.4367D+07          PRECIPITATION =                  
           STREAMFLOW =                               STREAMFLOW =                  
     GW BOUNDARY FLOW =                         GW BOUNDARY FLOW =                  


                                    OUT                                        OUT
                                    ---                                        ---
   EVAPOTRANSPIRATION =        5189993.18     EVAPOTRANSPIRATION =          87430.63
           STREAMFLOW =        4013656.23             STREAMFLOW =          26789.11
     GW BOUNDARY FLOW =         113863.01       GW BOUNDARY FLOW =            651.45

   INFLOWS - OUTFLOWS =        5049243.82     INFLOWS - OUTFLOWS =        -114871.19
             --------                                   --------

 TOTAL STORAGE CHANGE =        5056945.07         STORAGE CHANGE =        -114869.15
       --------------                             --------------
         LAND SURFACE =        4477883.40           LAND SURFACE =         -65021.85
            SOIL ZONE =        2350759.88              SOIL ZONE =         -41066.67
     UNSATURATED ZONE =       -1068864.39       UNSATURATED ZONE =          -3960.72
       SATURATED ZONE =        -702833.81         SATURATED ZONE =          -4819.92

 OVERALL BUDGET ERROR =          -7701.25           BUDGET ERROR =             -2.03


  PERCENT DISCREPANCY =             -0.05    PERCENT DISCREPANCY =             -0.00



1
 SUMMARY VOLUMETRIC BUDGET FOR GSFLOW 
 DATE: 03 31 1981              CUMULATIVE TIME STEP:     182
 MODFLOW STRESS PERIOD      2     CURRENT TIME STEP:     182     ITERATIONS:      12

 -----------------------------------------------------------------------------------

   CUMULATIVE VOLUMES               L**3   RATES FOR THIS TIME STEP           L**3/T
   ------------------                      ------------------------

                                     IN                                         IN
                                     --                                         --
        PRECIPITATION =        1.5777D+07          PRECIPITATION =                  
           STREAMFLOW =                               STREAMFLOW =                  
     GW BOUNDARY FLOW =                         GW BOUNDARY FLOW =                  


                                    OUT                                        OUT
                                    ---                                        ---
   EVAPOTRANSPIRATION =        5619923.95     EVAPOTRANSPIRATION =          54089.89
           STREAMFLOW =        4522401.99             STREAMFLOW =          37100.95
     GW BOUNDARY FLOW =         118445.01       GW BOUNDARY FLOW =            653.60

   INFLOWS - OUTFLOWS =        5515995.24     INFLOWS - OUTFLOWS =         -91844.44
             --------                                   --------

 TOTAL STORAGE CHANGE =        5523626.69         STORAGE CHANGE =         -91864.93
       --------------                             --------------
         LAND SURFACE =        4494493.37           LAND SURFACE =         -55486.84
            SOIL ZONE =        2547198.50              SOIL ZONE =         -41725.71
     UNSATURATED ZONE =        -823504.09       UNSATURATED ZONE =           5911.60
       SATURATED ZONE =        -694561.09         SATURATED ZONE =           -563.98

 OVERALL BUDGET ERROR =          -7631.45           BUDGET ERROR =             20.49


  PERCENT DISCREPANCY =             -0.05    PERCENT DISCREPANCY =              0.02



1
 SUMMARY VOLUMETRIC BUDGET FOR GSFLOW 
 DATE: 04 07 1981              CUMULATIVE TIME STEP:     189
 MODFLOW STRESS PERIOD      2     CURRENT TIME STEP:     189     ITERATIONS:      10

 -----------------------------------------------------------------------------------

   CUMULATIVE VOLUMES               L**3   RATES FOR THIS TIME STEP           L**3/T
   ------------------                      ------------------------

                                     IN                                         IN
                                     --                                         --
        PRECIPITATION =        1.6121D+07          PRECIPITATION =                  
           STREAMFLOW =                               STREAMFLOW =                  
     GW BOUNDARY FLOW =                         GW BOUNDARY FLOW =                  


                                    OUT                                        OUT
                                    ---                                        ---
   EVAPOTRANSPIRATION =        6245988.08     EVAPOTRANSPIRATION =         103842.76
           STREAMFLOW =        4840686.65             STREAMFLOW =          43396.60
     GW BOUNDARY FLOW =         123020.31       GW BOUNDARY FLOW =            653.73

   INFLOWS - OUTFLOWS =        4911788.11     INFLOWS - OUTFLOWS =        -147893.09
             --------                                   --------

 TOTAL STORAGE CHANGE =        4919293.54         STORAGE CHANGE =        -147912.23
       --------------                             --------------
         LAND SURFACE =        3870392.88           LAND SURFACE =        -138669.71
            SOIL ZONE =        2478576.77              SOIL ZONE =         -20331.92
     UNSATURATED ZONE =        -739049.07       UNSATURATED ZONE =          10756.91
       SATURATED ZONE =        -690627.05         SATURATED ZONE =            332.49

 OVERALL BUDGET ERROR =          -7505.43           BUDGET ERROR =             19.13


  PERCENT DISCREPANCY =             -0.05    PERCENT DISCREPANCY =              0.01



1
 SUMMARY VOLUMETRIC BUDGET FOR GSFLOW 
 DATE: 04 14 1981              CUMULATIVE TIME STEP:     196
 MODFLOW STRESS PERIOD      2     CURRENT TIME STEP:     196     ITERATIONS:      13

 -----------------------------------------------------------------------------------

   CUMULATIVE VOLUMES               L**3   RATES FOR THIS TIME STEP           L**3/T
   ------------------                      ------------------------

                                     IN                                         IN
                                     --                                         --
        PRECIPITATION =        1.6121D+07          PRECIPITATION =                  
           STREAMFLOW =                               STREAMFLOW =                  
     GW BOUNDARY FLOW =                         GW BOUNDARY FLOW =                  


                                    OUT                                        OUT
                                    ---                                        ---
   EVAPOTRANSPIRATION =        7156677.82     EVAPOTRANSPIRATION =         191910.02
           STREAMFLOW =        5167818.39             STREAMFLOW =          55463.93
     GW BOUNDARY FLOW =         127595.69       GW BOUNDARY FLOW =            653.68

   INFLOWS - OUTFLOWS =        3669391.25     INFLOWS - OUTFLOWS =        -248027.63
             --------                                   --------

 TOTAL STORAGE CHANGE =        3676789.72         STORAGE CHANGE =        -248031.96
       --------------                             --------------
         LAND SURFACE =        2621639.71           LAND SURFACE =        -253015.87
            SOIL ZONE =        2387020.31              SOIL ZONE =         -16778.18
     UNSATURATED ZONE =        -647938.15       UNSATURATED ZONE =          19707.89
       SATURATED ZONE =        -683932.14         SATURATED ZONE =           2054.20

 OVERALL BUDGET ERROR =          -7398.47           BUDGET ERROR =              4.33


  PERCENT DISCREPANCY =             -0.05    PERCENT DISCREPANCY =              0.00



1
 SUMMARY VOLUMETRIC BUDGET FOR GSFLOW 
 DATE: 04 21 1981              CUMULATIVE TIME STEP:     203
 MODFLOW STRESS PERIOD      2     CURRENT TIME STEP:     203     ITERATIONS:      12

 -----------------------------------------------------------------------------------

   CUMULATIVE VOLUMES               L**3   RATES FOR THIS TIME STEP           L**3/T
   ------------------                      ------------------------

                                     IN                                         IN
                                     --                                         --
        PRECIPITATION =        1.6310D+07          PRECIPITATION =                  
           STREAMFLOW =                               STREAMFLOW =                  
     GW BOUNDARY FLOW =                         GW BOUNDARY FLOW =                  


                                    OUT                                        OUT
                                    ---                                        ---
   EVAPOTRANSPIRATION =        8228635.53     EVAPOTRANSPIRATION =         152247.12
           STREAMFLOW =        5507017.32             STREAMFLOW =          45789.34
     GW BOUNDARY FLOW =         132167.13       GW BOUNDARY FLOW =            652.63

   INFLOWS - OUTFLOWS =        2442437.43     INFLOWS - OUTFLOWS =        -198689.09
             --------                                   --------

 TOTAL STORAGE CHANGE =        2449709.93         STORAGE CHANGE =        -198716.11
       --------------                             --------------
         LAND SURFACE =        1441063.64           LAND SURFACE =        -121364.40
            SOIL ZONE =        2205069.00              SOIL ZONE =         -97328.15
     UNSATURATED ZONE =        -529445.58       UNSATURATED ZONE =          17089.60
       SATURATED ZONE =        -666977.13         SATURATED ZONE =           2886.85

 OVERALL BUDGET ERROR =          -7272.50           BUDGET ERROR =             27.02


  PERCENT DISCREPANCY =             -0.04    PERCENT DISCREPANCY =              0.01



1
 SUMMARY VOLUMETRIC BUDGET FOR GSFLOW 
 DATE: 04 28 1981              CUMULATIVE TIME STEP:     210
 MODFLOW STRESS PERIOD      2     CURRENT TIME STEP:     210     ITERATIONS:      14

 -----------------------------------------------------------------------------------

   CUMULATIVE VOLUMES               L**3   RATES FOR THIS TIME STEP           L**3/T
   ------------------                      ------------------------

                                     IN                                         IN
                                     --                                         --
        PRECIPITATION =        1.6515D+07          PRECIPITATION =                  
           STREAMFLOW =                               STREAMFLOW =                  
     GW BOUNDARY FLOW =                         GW BOUNDARY FLOW =                  


                                    OUT                                        OUT
                                    ---                                        ---
   EVAPOTRANSPIRATION =        9467124.36     EVAPOTRANSPIRATION =         200398.99
           STREAMFLOW =        5719104.97             STREAMFLOW =          24668.29
     GW BOUNDARY FLOW =         136726.62       GW BOUNDARY FLOW =            650.47

   INFLOWS - OUTFLOWS =        1192491.00     INFLOWS - OUTFLOWS =        -225717.75
             --------                                   --------

 TOTAL STORAGE CHANGE =        1199649.56         STORAGE CHANGE =        -225735.50
       --------------                             --------------
         LAND SURFACE =         691620.73           LAND SURFACE =         -83515.74
            SOIL ZONE =        1694973.28              SOIL ZONE =        -138423.80
     UNSATURATED ZONE =        -527464.92       UNSATURATED ZONE =          -4086.96
       SATURATED ZONE =        -659479.53         SATURATED ZONE =            291.00

 OVERALL BUDGET ERROR =          -7158.56           BUDGET ERROR =             17.74


  PERCENT DISCREPANCY =             -0.04    PERCENT DISCREPANCY =              0.01



1
 SUMMARY VOLUMETRIC BUDGET FOR GSFLOW 
 DATE: 05 05 1981              CUMULATIVE TIME STEP:     217
 MODFLOW STRESS PERIOD      2     CURRENT TIME STEP:     217     ITERATIONS:      13

 -----------------------------------------------------------------------------------

   CUMULATIVE VOLUMES               L**3   RATES FOR THIS TIME STEP           L**3/T
   ------------------                      ------------------------

                                     IN                                         IN
                                     --                                         --
        PRECIPITATION =        1.6515D+07          PRECIPITATION =                  
           STREAMFLOW =                               STREAMFLOW =                  
     GW BOUNDARY FLOW =                         GW BOUNDARY FLOW =                  


                                    OUT                                        OUT
                                    ---                                        ---
   EVAPOTRANSPIRATION =        1.0354D+07     EVAPOTRANSPIRATION =          52071.84
           STREAMFLOW =        5824050.54             STREAMFLOW =          10603.71
     GW BOUNDARY FLOW =         141272.96       GW BOUNDARY FLOW =            648.78

   INFLOWS - OUTFLOWS =         196114.57     INFLOWS - OUTFLOWS =         -63324.32
             --------                                   --------

 TOTAL STORAGE CHANGE =         203206.85         STORAGE CHANGE =         -63328.67
       --------------                             --------------
         LAND SURFACE =         347403.61           LAND SURFACE =         -17503.36
            SOIL ZONE =        1153507.36              SOIL ZONE =         -26297.61
     UNSATURATED ZONE =        -624850.76       UNSATURATED ZONE =         -16448.17
       SATURATED ZONE =        -672853.36         SATURATED ZONE =          -3079.53

 OVERALL BUDGET ERROR =          -7092.27           BUDGET ERROR =              4.34


  PERCENT DISCREPANCY =             -0.04    PERCENT DISCREPANCY =              0.01



1
 SUMMARY VOLUMETRIC BUDGET FOR GSFLOW 
 DATE: 05 12 1981              CUMULATIVE TIME STEP:     224
 MODFLOW STRESS PERIOD      2     CURRENT TIME STEP:     224     ITERATIONS:      15

 -----------------------------------------------------------------------------------

   CUMULATIVE VOLUMES               L**3   RATES FOR THIS TIME STEP           L**3/T
   ------------------                      ------------------------

                                     IN                                         IN
                                     --                                         --
        PRECIPITATION =        1.6515D+07          PRECIPITATION =                  
           STREAMFLOW =                               STREAMFLOW =                  
     GW BOUNDARY FLOW =                         GW BOUNDARY FLOW =                  


                                    OUT                                        OUT
                                    ---                                        ---
   EVAPOTRANSPIRATION =        1.0874D+07     EVAPOTRANSPIRATION =          91407.24
           STREAMFLOW =        5893100.39             STREAMFLOW =          10122.26
     GW BOUNDARY FLOW =         145811.38       GW BOUNDARY FLOW =            648.17

   INFLOWS - OUTFLOWS =        -397856.63     INFLOWS - OUTFLOWS =        -102177.67
             --------                                   --------

 TOTAL STORAGE CHANGE =        -390763.11         STORAGE CHANGE =        -102172.47
       --------------                             --------------
         LAND SURFACE =         198720.95           LAND SURFACE =         -25499.92
            SOIL ZONE =         845403.29              SOIL ZONE =         -57519.82
     UNSATURATED ZONE =        -732098.18       UNSATURATED ZONE =         -13708.50
       SATURATED ZONE =        -702789.18         SATURATED ZONE =          -5444.23

 OVERALL BUDGET ERROR =          -7093.52           BUDGET ERROR =             -5.20


  PERCENT DISCREPANCY =             -0.04    PERCENT DISCREPANCY =             -0.01



1
 SUMMARY VOLUMETRIC BUDGET FOR GSFLOW 
 DATE: 05 19 1981              CUMULATIVE TIME STEP:     231
 MODFLOW STRESS PERIOD      2     CURRENT TIME STEP:     231     ITERATIONS:      15

 -----------------------------------------------------------------------------------

   CUMULATIVE VOLUMES               L**3   RATES FOR THIS TIME STEP           L**3/T
   ------------------                      ------------------------

                                     IN                                         IN
                                     --                                         --
        PRECIPITATION =        1.7837D+07          PRECIPITATION =         169047.83
           STREAMFLOW =                               STREAMFLOW =                  
     GW BOUNDARY FLOW =                         GW BOUNDARY FLOW =                  


                                    OUT                                        OUT
                                    ---                                        ---
   EVAPOTRANSPIRATION =        1.1232D+07     EVAPOTRANSPIRATION =          35342.78
           STREAMFLOW =        6017630.78             STREAMFLOW =          25672.97
     GW BOUNDARY FLOW =         150350.41       GW BOUNDARY FLOW =            649.44

   INFLOWS - OUTFLOWS =         436834.28     INFLOWS - OUTFLOWS =         107382.64
             --------                                   --------

 TOTAL STORAGE CHANGE =         443926.43         STORAGE CHANGE =         107387.43
       --------------                             --------------
         LAND SURFACE =         167126.53           LAND SURFACE =           4530.43
            SOIL ZONE =        1824302.49              SOIL ZONE =         110365.03
     UNSATURATED ZONE =        -804714.35       UNSATURATED ZONE =          -1976.22
       SATURATED ZONE =        -742788.25         SATURATED ZONE =          -5531.81

 OVERALL BUDGET ERROR =          -7092.15           BUDGET ERROR =             -4.78


  PERCENT DISCREPANCY =             -0.04    PERCENT DISCREPANCY =             -0.00



1
 SUMMARY VOLUMETRIC BUDGET FOR GSFLOW 
 DATE: 05 26 1981              CUMULATIVE TIME STEP:     238
 MODFLOW STRESS PERIOD      2     CURRENT TIME STEP:     238     ITERATIONS:      12

 -----------------------------------------------------------------------------------

   CUMULATIVE VOLUMES               L**3   RATES FOR THIS TIME STEP           L**3/T
   ------------------                      ------------------------

                                     IN                                         IN
                                     --                                         --
        PRECIPITATION =        1.8252D+07          PRECIPITATION =         284301.98
           STREAMFLOW =                               STREAMFLOW =                  
     GW BOUNDARY FLOW =                         GW BOUNDARY FLOW =                  


                                    OUT                                        OUT
                                    ---                                        ---
   EVAPOTRANSPIRATION =        1.2124D+07     EVAPOTRANSPIRATION =         143847.36
           STREAMFLOW =        6124013.13             STREAMFLOW =          18213.17
     GW BOUNDARY FLOW =         154891.05       GW BOUNDARY FLOW =            648.42

   INFLOWS - OUTFLOWS =        -150927.30     INFLOWS - OUTFLOWS =         121593.02
             --------                                   --------

 TOTAL STORAGE CHANGE =        -143818.47         STORAGE CHANGE =         121601.03
       --------------                             --------------
         LAND SURFACE =          96901.93           LAND SURFACE =          -7055.52
            SOIL ZONE =        1416529.63              SOIL ZONE =         146522.13
     UNSATURATED ZONE =        -865941.78       UNSATURATED ZONE =         -10988.33
       SATURATED ZONE =        -791308.25         SATURATED ZONE =          -6877.25

 OVERALL BUDGET ERROR =          -7108.83           BUDGET ERROR =             -8.01


  PERCENT DISCREPANCY =             -0.04    PERCENT DISCREPANCY =             -0.00



1
 SUMMARY VOLUMETRIC BUDGET FOR GSFLOW 
 DATE: 06 02 1981              CUMULATIVE TIME STEP:     245
 MODFLOW STRESS PERIOD      2     CURRENT TIME STEP:     245     ITERATIONS:      14

 -----------------------------------------------------------------------------------

   CUMULATIVE VOLUMES               L**3   RATES FOR THIS TIME STEP           L**3/T
   ------------------                      ------------------------

                                     IN                                         IN
                                     --                                         --
        PRECIPITATION =        1.8318D+07          PRECIPITATION =          50867.39
           STREAMFLOW =                               STREAMFLOW =                  
     GW BOUNDARY FLOW =                         GW BOUNDARY FLOW =                  


                                    OUT                                        OUT
                                    ---                                        ---
   EVAPOTRANSPIRATION =        1.2927D+07     EVAPOTRANSPIRATION =          64990.79
           STREAMFLOW =        6190252.10             STREAMFLOW =           7479.45
     GW BOUNDARY FLOW =         159425.69       GW BOUNDARY FLOW =            647.38

   INFLOWS - OUTFLOWS =        -958075.17     INFLOWS - OUTFLOWS =         -22250.24
             --------                                   --------

 TOTAL STORAGE CHANGE =        -950941.72         STORAGE CHANGE =         -22248.09
       --------------                             --------------
         LAND SURFACE =          61824.55           LAND SURFACE =          30829.61
            SOIL ZONE =         790770.73              SOIL ZONE =         -30853.96
     UNSATURATED ZONE =        -954456.80       UNSATURATED ZONE =         -13645.35
       SATURATED ZONE =        -849080.20         SATURATED ZONE =          -8578.39

 OVERALL BUDGET ERROR =          -7133.45           BUDGET ERROR =             -2.14


  PERCENT DISCREPANCY =             -0.04    PERCENT DISCREPANCY =             -0.00



1
 SUMMARY VOLUMETRIC BUDGET FOR GSFLOW 
 DATE: 06 09 1981              CUMULATIVE TIME STEP:     252
 MODFLOW STRESS PERIOD      2     CURRENT TIME STEP:     252     ITERATIONS:      13

 -----------------------------------------------------------------------------------

   CUMULATIVE VOLUMES               L**3   RATES FOR THIS TIME STEP           L**3/T
   ------------------                      ------------------------

                                     IN                                         IN
                                     --                                         --
        PRECIPITATION =        1.8318D+07          PRECIPITATION =                  
           STREAMFLOW =                               STREAMFLOW =                  
     GW BOUNDARY FLOW =                         GW BOUNDARY FLOW =                  


                                    OUT                                        OUT
                                    ---                                        ---
   EVAPOTRANSPIRATION =        1.3394D+07     EVAPOTRANSPIRATION =          48544.90
           STREAMFLOW =        6236949.74             STREAMFLOW =           6324.33
     GW BOUNDARY FLOW =         163955.35       GW BOUNDARY FLOW =            646.94

   INFLOWS - OUTFLOWS =       -1476992.11     INFLOWS - OUTFLOWS =         -55516.17
             --------                                   --------

 TOTAL STORAGE CHANGE =       -1469821.94         STORAGE CHANGE =         -55511.06
       --------------                             --------------
         LAND SURFACE =           8254.44           LAND SURFACE =          -1595.45
            SOIL ZONE =         480975.61              SOIL ZONE =         -31741.84
     UNSATURATED ZONE =       -1047601.74       UNSATURATED ZONE =         -13064.08
       SATURATED ZONE =        -911450.24         SATURATED ZONE =          -9109.69

 OVERALL BUDGET ERROR =          -7170.17           BUDGET ERROR =             -5.12


  PERCENT DISCREPANCY =             -0.04    PERCENT DISCREPANCY =             -0.01



1
 SUMMARY VOLUMETRIC BUDGET FOR GSFLOW 
 DATE: 06 16 1981              CUMULATIVE TIME STEP:     259
 MODFLOW STRESS PERIOD      2     CURRENT TIME STEP:     259     ITERATIONS:      12

 -----------------------------------------------------------------------------------

   CUMULATIVE VOLUMES               L**3   RATES FOR THIS TIME STEP           L**3/T
   ------------------                      ------------------------

                                     IN                                         IN
                                     --                                         --
        PRECIPITATION =        1.8318D+07          PRECIPITATION =                  
           STREAMFLOW =                               STREAMFLOW =                  
     GW BOUNDARY FLOW =                         GW BOUNDARY FLOW =                  


                                    OUT                                        OUT
                                    ---                                        ---
   EVAPOTRANSPIRATION =        1.3579D+07     EVAPOTRANSPIRATION =          43990.69
           STREAMFLOW =        6280194.80             STREAMFLOW =           6114.78
     GW BOUNDARY FLOW =         168483.03       GW BOUNDARY FLOW =            646.73

   INFLOWS - OUTFLOWS =       -1709029.94     INFLOWS - OUTFLOWS =         -50752.20
             --------                                   --------

 TOTAL STORAGE CHANGE =       -1701819.31         STORAGE CHANGE =         -50749.38
       --------------                             --------------
         LAND SURFACE =           3426.51           LAND SURFACE =           -943.67
            SOIL ZONE =         407713.51              SOIL ZONE =         -27945.32
     UNSATURATED ZONE =       -1136678.73       UNSATURATED ZONE =         -12435.83
       SATURATED ZONE =        -976280.60         SATURATED ZONE =          -9424.57

 OVERALL BUDGET ERROR =          -7210.63           BUDGET ERROR =             -2.82


  PERCENT DISCREPANCY =             -0.04    PERCENT DISCREPANCY =             -0.01



1
 SUMMARY VOLUMETRIC BUDGET FOR GSFLOW 
 DATE: 06 23 1981              CUMULATIVE TIME STEP:     266
 MODFLOW STRESS PERIOD      2     CURRENT TIME STEP:     266     ITERATIONS:      14

 -----------------------------------------------------------------------------------

   CUMULATIVE VOLUMES               L**3   RATES FOR THIS TIME STEP           L**3/T
   ------------------                      ------------------------

                                     IN                                         IN
                                     --                                         --
        PRECIPITATION =        1.8318D+07          PRECIPITATION =                  
           STREAMFLOW =                               STREAMFLOW =                  
     GW BOUNDARY FLOW =                         GW BOUNDARY FLOW =                  


                                    OUT                                        OUT
                                    ---                                        ---
   EVAPOTRANSPIRATION =        1.3857D+07     EVAPOTRANSPIRATION =          33005.51
           STREAMFLOW =        6322163.47             STREAMFLOW =           5933.57
     GW BOUNDARY FLOW =         173009.48       GW BOUNDARY FLOW =            646.56

   INFLOWS - OUTFLOWS =       -2033822.35     INFLOWS - OUTFLOWS =         -39585.65
             --------                                   --------

 TOTAL STORAGE CHANGE =       -2026591.16         STORAGE CHANGE =         -39583.91
       --------------                             --------------
         LAND SURFACE =                             LAND SURFACE =                  
            SOIL ZONE =         238232.36              SOIL ZONE =         -18006.55
     UNSATURATED ZONE =       -1221500.57       UNSATURATED ZONE =         -11730.07
       SATURATED ZONE =       -1043322.95         SATURATED ZONE =          -9847.30

 OVERALL BUDGET ERROR =          -7231.20           BUDGET ERROR =             -1.73


  PERCENT DISCREPANCY =             -0.04    PERCENT DISCREPANCY =             -0.00



1
 SUMMARY VOLUMETRIC BUDGET FOR GSFLOW 
 DATE: 06 30 1981              CUMULATIVE TIME STEP:     273
 MODFLOW STRESS PERIOD      2     CURRENT TIME STEP:     273     ITERATIONS:       9

 -----------------------------------------------------------------------------------

   CUMULATIVE VOLUMES               L**3   RATES FOR THIS TIME STEP           L**3/T
   ------------------                      ------------------------

                                     IN                                         IN
[...]
     GW BOUNDARY FLOW =        3735622.60       GW BOUNDARY FLOW =            650.71

   INFLOWS - OUTFLOWS =       -7932136.12     INFLOWS - OUTFLOWS =         -48720.68
             --------                                   --------

 TOTAL STORAGE CHANGE =       -7825004.53         STORAGE CHANGE =         -48734.17
       --------------                             --------------
         LAND SURFACE =          84521.90           LAND SURFACE =          -4963.73
            SOIL ZONE =         221356.86              SOIL ZONE =         -22483.65
     UNSATURATED ZONE =        5304138.10       UNSATURATED ZONE =         -27512.15
       SATURATED ZONE =       -1.3435D+07         SATURATED ZONE =           6225.36

 OVERALL BUDGET ERROR =        -107131.60           BUDGET ERROR =             13.49


  PERCENT DISCREPANCY =             -0.02    PERCENT DISCREPANCY =              0.03



1
 SUMMARY VOLUMETRIC BUDGET FOR GSFLOW 
 DATE: 07 30 1996              CUMULATIVE TIME STEP:    5782
 MODFLOW STRESS PERIOD      2     CURRENT TIME STEP:    5782     ITERATIONS:      14

 -----------------------------------------------------------------------------------

   CUMULATIVE VOLUMES               L**3   RATES FOR THIS TIME STEP           L**3/T
   ------------------                      ------------------------

                                     IN                                         IN
                                     --                                         --
        PRECIPITATION =        4.6511D+08          PRECIPITATION =                  
           STREAMFLOW =                               STREAMFLOW =                  
     GW BOUNDARY FLOW =                         GW BOUNDARY FLOW =                  


                                    OUT                                        OUT
                                    ---                                        ---
   EVAPOTRANSPIRATION =        2.8895D+08     EVAPOTRANSPIRATION =          25374.14
           STREAMFLOW =        1.8060D+08             STREAMFLOW =           6739.42
     GW BOUNDARY FLOW =        3740175.93       GW BOUNDARY FLOW =            650.28

   INFLOWS - OUTFLOWS =       -8188558.18     INFLOWS - OUTFLOWS =         -32763.84
             --------                                   --------

 TOTAL STORAGE CHANGE =       -8081502.85         STORAGE CHANGE =         -32780.54
       --------------                             --------------
         LAND SURFACE =          55427.09           LAND SURFACE =          -3488.58
            SOIL ZONE =         141566.34              SOIL ZONE =          -8333.05
     UNSATURATED ZONE =        5116621.28       UNSATURATED ZONE =         -26308.18
       SATURATED ZONE =       -1.3395D+07         SATURATED ZONE =           5349.26

 OVERALL BUDGET ERROR =        -107055.33           BUDGET ERROR =             16.70


  PERCENT DISCREPANCY =             -0.02    PERCENT DISCREPANCY =              0.05



1
 SUMMARY VOLUMETRIC BUDGET FOR GSFLOW 
 DATE: 08 06 1996              CUMULATIVE TIME STEP:    5789
 MODFLOW STRESS PERIOD      2     CURRENT TIME STEP:    5789     ITERATIONS:      13

 -----------------------------------------------------------------------------------

   CUMULATIVE VOLUMES               L**3   RATES FOR THIS TIME STEP           L**3/T
   ------------------                      ------------------------

                                     IN                                         IN
                                     --                                         --
        PRECIPITATION =        4.6511D+08          PRECIPITATION =                  
           STREAMFLOW =                               STREAMFLOW =                  
     GW BOUNDARY FLOW =                         GW BOUNDARY FLOW =                  


                                    OUT                                        OUT
                                    ---                                        ---
   EVAPOTRANSPIRATION =        2.8909D+08     EVAPOTRANSPIRATION =          18604.29
           STREAMFLOW =        1.8065D+08             STREAMFLOW =           6538.78
     GW BOUNDARY FLOW =        3744726.14       GW BOUNDARY FLOW =            649.91

   INFLOWS - OUTFLOWS =       -8375417.13     INFLOWS - OUTFLOWS =         -25792.99
             --------                                   --------

 TOTAL STORAGE CHANGE =       -8268512.20         STORAGE CHANGE =         -25820.87
       --------------                             --------------
         LAND SURFACE =          37080.11           LAND SURFACE =          -2254.04
            SOIL ZONE =         118459.48              SOIL ZONE =          -2891.23
     UNSATURATED ZONE =        4935004.83       UNSATURATED ZONE =         -25454.98
       SATURATED ZONE =       -1.3359D+07         SATURATED ZONE =           4779.38

 OVERALL BUDGET ERROR =        -106904.93           BUDGET ERROR =             27.89


  PERCENT DISCREPANCY =             -0.02    PERCENT DISCREPANCY =              0.11



1
 SUMMARY VOLUMETRIC BUDGET FOR GSFLOW 
 DATE: 08 13 1996              CUMULATIVE TIME STEP:    5796
 MODFLOW STRESS PERIOD      2     CURRENT TIME STEP:    5796     ITERATIONS:      14

 -----------------------------------------------------------------------------------

   CUMULATIVE VOLUMES               L**3   RATES FOR THIS TIME STEP           L**3/T
   ------------------                      ------------------------

                                     IN                                         IN
                                     --                                         --
        PRECIPITATION =        4.6531D+08          PRECIPITATION =          54456.73
           STREAMFLOW =                               STREAMFLOW =                  
     GW BOUNDARY FLOW =                         GW BOUNDARY FLOW =                  


                                    OUT                                        OUT
                                    ---                                        ---
   EVAPOTRANSPIRATION =        2.8926D+08     EVAPOTRANSPIRATION =          33539.41
           STREAMFLOW =        1.8070D+08             STREAMFLOW =           7738.32
     GW BOUNDARY FLOW =        3749275.43       GW BOUNDARY FLOW =            649.95

   INFLOWS - OUTFLOWS =       -8399038.93     INFLOWS - OUTFLOWS =          12529.05
             --------                                   --------

 TOTAL STORAGE CHANGE =       -8292234.59         STORAGE CHANGE =          12518.38
       --------------                             --------------
         LAND SURFACE =          53177.14           LAND SURFACE =          -2312.81
            SOIL ZONE =         221805.68              SOIL ZONE =          35090.82
     UNSATURATED ZONE =        4761637.45       UNSATURATED ZONE =         -24146.27
       SATURATED ZONE =       -1.3329D+07         SATURATED ZONE =           3886.65

 OVERALL BUDGET ERROR =        -106804.34           BUDGET ERROR =             10.67


  PERCENT DISCREPANCY =             -0.02    PERCENT DISCREPANCY =              0.02



1
 SUMMARY VOLUMETRIC BUDGET FOR GSFLOW 
 DATE: 08 20 1996              CUMULATIVE TIME STEP:    5803
 MODFLOW STRESS PERIOD      2     CURRENT TIME STEP:    5803     ITERATIONS:      13

 -----------------------------------------------------------------------------------

   CUMULATIVE VOLUMES               L**3   RATES FOR THIS TIME STEP           L**3/T
   ------------------                      ------------------------

                                     IN                                         IN
                                     --                                         --
        PRECIPITATION =        4.6531D+08          PRECIPITATION =                  
           STREAMFLOW =                               STREAMFLOW =                  
     GW BOUNDARY FLOW =                         GW BOUNDARY FLOW =                  


                                    OUT                                        OUT
                                    ---                                        ---
   EVAPOTRANSPIRATION =        2.8946D+08     EVAPOTRANSPIRATION =          16671.73
           STREAMFLOW =        1.8075D+08             STREAMFLOW =           6347.16
     GW BOUNDARY FLOW =        3753823.66       GW BOUNDARY FLOW =            649.60

   INFLOWS - OUTFLOWS =       -8647091.55     INFLOWS - OUTFLOWS =         -23668.49
             --------                                   --------

 TOTAL STORAGE CHANGE =       -8540404.82         STORAGE CHANGE =         -23686.01
       --------------                             --------------
         LAND SURFACE =           6933.74           LAND SURFACE =          -1297.55
            SOIL ZONE =         161641.32              SOIL ZONE =          -2240.66
     UNSATURATED ZONE =        4596992.50       UNSATURATED ZONE =         -23078.16
       SATURATED ZONE =       -1.3306D+07         SATURATED ZONE =           2930.36

 OVERALL BUDGET ERROR =        -106686.73           BUDGET ERROR =             17.52


  PERCENT DISCREPANCY =             -0.02    PERCENT DISCREPANCY =              0.07



1
 SUMMARY VOLUMETRIC BUDGET FOR GSFLOW 
 DATE: 08 27 1996              CUMULATIVE TIME STEP:    5810
 MODFLOW STRESS PERIOD      2     CURRENT TIME STEP:    5810     ITERATIONS:      13

 -----------------------------------------------------------------------------------

   CUMULATIVE VOLUMES               L**3   RATES FOR THIS TIME STEP           L**3/T
   ------------------                      ------------------------

                                     IN                                         IN
                                     --                                         --
        PRECIPITATION =        4.6531D+08          PRECIPITATION =                  
           STREAMFLOW =                               STREAMFLOW =                  
     GW BOUNDARY FLOW =                         GW BOUNDARY FLOW =                  


                                    OUT                                        OUT
                                    ---                                        ---
   EVAPOTRANSPIRATION =        2.8960D+08     EVAPOTRANSPIRATION =          15152.00
           STREAMFLOW =        1.8079D+08             STREAMFLOW =           6188.68
     GW BOUNDARY FLOW =        3758369.52       GW BOUNDARY FLOW =            649.26

   INFLOWS - OUTFLOWS =       -8831142.09     INFLOWS - OUTFLOWS =         -21989.94
             --------                                   --------

 TOTAL STORAGE CHANGE =       -8724548.92         STORAGE CHANGE =         -22001.24
       --------------                             --------------
         LAND SURFACE =           1244.67           LAND SURFACE =           -272.68
            SOIL ZONE =         123221.15              SOIL ZONE =          -1826.90
     UNSATURATED ZONE =        4440595.10       UNSATURATED ZONE =         -21991.87
       SATURATED ZONE =       -1.3290D+07         SATURATED ZONE =           2090.20

 OVERALL BUDGET ERROR =        -106593.16           BUDGET ERROR =             11.30


  PERCENT DISCREPANCY =             -0.02    PERCENT DISCREPANCY =              0.05



1
 SUMMARY VOLUMETRIC BUDGET FOR GSFLOW 
 DATE: 09 03 1996              CUMULATIVE TIME STEP:    5817
 MODFLOW STRESS PERIOD      2     CURRENT TIME STEP:    5817     ITERATIONS:      12

 -----------------------------------------------------------------------------------

   CUMULATIVE VOLUMES               L**3   RATES FOR THIS TIME STEP           L**3/T
   ------------------                      ------------------------

                                     IN                                         IN
                                     --                                         --
        PRECIPITATION =        4.6531D+08          PRECIPITATION =                  
           STREAMFLOW =                               STREAMFLOW =                  
     GW BOUNDARY FLOW =                         GW BOUNDARY FLOW =                  


                                    OUT                                        OUT
                                    ---                                        ---
   EVAPOTRANSPIRATION =        2.8970D+08     EVAPOTRANSPIRATION =          12343.31
           STREAMFLOW =        1.8083D+08             STREAMFLOW =           6088.74
     GW BOUNDARY FLOW =        3762912.88       GW BOUNDARY FLOW =            648.88

   INFLOWS - OUTFLOWS =       -8980185.59     INFLOWS - OUTFLOWS =         -19080.94
             --------                                   --------

 TOTAL STORAGE CHANGE =       -8873755.42         STORAGE CHANGE =         -19099.62
       --------------                             --------------
         LAND SURFACE =            584.39           LAND SURFACE =            -75.06
            SOIL ZONE =         113165.34              SOIL ZONE =            660.38
     UNSATURATED ZONE =        4290463.81       UNSATURATED ZONE =         -21141.58
       SATURATED ZONE =       -1.3278D+07         SATURATED ZONE =           1456.64

 OVERALL BUDGET ERROR =        -106430.17           BUDGET ERROR =             18.68


  PERCENT DISCREPANCY =             -0.02    PERCENT DISCREPANCY =              0.10



1
 SUMMARY VOLUMETRIC BUDGET FOR GSFLOW 
 DATE: 09 10 1996              CUMULATIVE TIME STEP:    5824
 MODFLOW STRESS PERIOD      2     CURRENT TIME STEP:    5824     ITERATIONS:      12

 -----------------------------------------------------------------------------------

   CUMULATIVE VOLUMES               L**3   RATES FOR THIS TIME STEP           L**3/T
   ------------------                      ------------------------

                                     IN                                         IN
                                     --                                         --
        PRECIPITATION =        4.6531D+08          PRECIPITATION =                  
           STREAMFLOW =                               STREAMFLOW =                  
     GW BOUNDARY FLOW =                         GW BOUNDARY FLOW =                  


                                    OUT                                        OUT
                                    ---                                        ---
   EVAPOTRANSPIRATION =        2.8978D+08     EVAPOTRANSPIRATION =          13669.44
           STREAMFLOW =        1.8087D+08             STREAMFLOW =           5997.38
     GW BOUNDARY FLOW =        3767453.63       GW BOUNDARY FLOW =            648.52

   INFLOWS - OUTFLOWS =       -9109700.31     INFLOWS - OUTFLOWS =         -20315.33
             --------                                   --------

 TOTAL STORAGE CHANGE =       -9003444.11         STORAGE CHANGE =         -20340.63
       --------------                             --------------
         LAND SURFACE =            141.93           LAND SURFACE =            -69.29
            SOIL ZONE =         120897.14              SOIL ZONE =           -794.07
     UNSATURATED ZONE =        4142897.32       UNSATURATED ZONE =         -20898.88
       SATURATED ZONE =       -1.3267D+07         SATURATED ZONE =           1421.60

 OVERALL BUDGET ERROR =        -106256.20           BUDGET ERROR =             25.30


  PERCENT DISCREPANCY =             -0.02    PERCENT DISCREPANCY =              0.12



1
 SUMMARY VOLUMETRIC BUDGET FOR GSFLOW 
 DATE: 09 17 1996              CUMULATIVE TIME STEP:    5831
 MODFLOW STRESS PERIOD      2     CURRENT TIME STEP:    5831     ITERATIONS:      11

 -----------------------------------------------------------------------------------

   CUMULATIVE VOLUMES               L**3   RATES FOR THIS TIME STEP           L**3/T
   ------------------                      ------------------------

                                     IN                                         IN
                                     --                                         --
        PRECIPITATION =        4.6637D+08          PRECIPITATION =                  
           STREAMFLOW =                               STREAMFLOW =                  
     GW BOUNDARY FLOW =                         GW BOUNDARY FLOW =                  


                                    OUT                                        OUT
                                    ---                                        ---
   EVAPOTRANSPIRATION =        2.8997D+08     EVAPOTRANSPIRATION =          63860.91
           STREAMFLOW =        1.8094D+08             STREAMFLOW =          10044.17
     GW BOUNDARY FLOW =        3771993.73       GW BOUNDARY FLOW =            648.93

   INFLOWS - OUTFLOWS =       -8311374.53     INFLOWS - OUTFLOWS =         -74554.01
             --------                                   --------

 TOTAL STORAGE CHANGE =       -8205322.49         STORAGE CHANGE =         -74598.69
       --------------                             --------------
         LAND SURFACE =           2829.02           LAND SURFACE =         -35615.32
            SOIL ZONE =        1049665.20              SOIL ZONE =         -19687.75
     UNSATURATED ZONE =        4000701.82       UNSATURATED ZONE =         -19898.72
       SATURATED ZONE =       -1.3259D+07         SATURATED ZONE =            603.10

 OVERALL BUDGET ERROR =        -106052.04           BUDGET ERROR =             44.68


  PERCENT DISCREPANCY =             -0.02    PERCENT DISCREPANCY =              0.06



1
 SUMMARY VOLUMETRIC BUDGET FOR GSFLOW 
 DATE: 09 24 1996              CUMULATIVE TIME STEP:    5838
 MODFLOW STRESS PERIOD      2     CURRENT TIME STEP:    5838     ITERATIONS:      12

 -----------------------------------------------------------------------------------

   CUMULATIVE VOLUMES               L**3   RATES FOR THIS TIME STEP           L**3/T
   ------------------                      ------------------------

                                     IN                                         IN
                                     --                                         --
        PRECIPITATION =        4.6637D+08          PRECIPITATION =                  
           STREAMFLOW =                               STREAMFLOW =                  
     GW BOUNDARY FLOW =                         GW BOUNDARY FLOW =                  


                                    OUT                                        OUT
                                    ---                                        ---
   EVAPOTRANSPIRATION =        2.9046D+08     EVAPOTRANSPIRATION =          56976.06
           STREAMFLOW =        1.8099D+08             STREAMFLOW =           6389.94
     GW BOUNDARY FLOW =        3776532.23       GW BOUNDARY FLOW =            648.02

   INFLOWS - OUTFLOWS =       -8862247.88     INFLOWS - OUTFLOWS =         -64014.02
             --------                                   --------

 TOTAL STORAGE CHANGE =       -8756398.69         STORAGE CHANGE =         -64039.96
       --------------                             --------------
         LAND SURFACE =                             LAND SURFACE =                  
            SOIL ZONE =         635747.23              SOIL ZONE =         -44938.39
     UNSATURATED ZONE =        3864938.48       UNSATURATED ZONE =         -19223.19
       SATURATED ZONE =       -1.3257D+07         SATURATED ZONE =            121.62

 OVERALL BUDGET ERROR =        -105849.20           BUDGET ERROR =             25.94


  PERCENT DISCREPANCY =             -0.02    PERCENT DISCREPANCY =              0.04



 Number of time steps:   5844;  Number of non-convergence:   0
 MF iterations:         63706;  SZ iterations:           63668
 Average MF iterations: 10.90;  Average SZ iterations:   10.89
 Maximum MF iterations:    32;  Maximum SZ iterations:      25

mxsziter reached: 13

