1
 SUMMARY VOLUMETRIC BUDGET FOR GSFLOW 
 DATE: 10 07 1980              CUMULATIVE TIME STEP:       7
 MODFLOW STRESS PERIOD      2     CURRENT TIME STEP:       7     ITERATIONS:       6

 -----------------------------------------------------------------------------------

   CUMULATIVE VOLUMES               L**3   RATES FOR THIS TIME STEP           L**3/T
   ------------------                      ------------------------

                                     IN                                         IN
                                     --                                         --
        PRECIPITATION =                            PRECIPITATION =                  
           STREAMFLOW =                               STREAMFLOW =                  
     GW BOUNDARY FLOW =                         GW BOUNDARY FLOW =                  


                                    OUT                                        OUT
                                    ---                                        ---
   EVAPOTRANSPIRATION =          63502.38     EVAPOTRANSPIRATION =           9679.51
           STREAMFLOW =          42957.63             STREAMFLOW =           6065.77
     GW BOUNDARY FLOW =           4541.44       GW BOUNDARY FLOW =            648.70

   INFLOWS - OUTFLOWS =        -111001.44     INFLOWS - OUTFLOWS =         -16393.99
             --------                                   --------

 TOTAL STORAGE CHANGE =        -110545.66         STORAGE CHANGE =         -16325.67
       --------------                             --------------
         LAND SURFACE =                             LAND SURFACE =                  
            SOIL ZONE =          47014.67              SOIL ZONE =           6016.91
     UNSATURATED ZONE =        -144777.37       UNSATURATED ZONE =         -20360.11
       SATURATED ZONE =         -12782.96         SATURATED ZONE =          -1982.46

 OVERALL BUDGET ERROR =           -455.78           BUDGET ERROR =            -68.32


  PERCENT DISCREPANCY =             -0.41    PERCENT DISCREPANCY =             -0.42



1
 SUMMARY VOLUMETRIC BUDGET FOR GSFLOW 
 DATE: 10 14 1980              CUMULATIVE TIME STEP:      14
 MODFLOW STRESS PERIOD      2     CURRENT TIME STEP:      14     ITERATIONS:       6

 -----------------------------------------------------------------------------------

   CUMULATIVE VOLUMES               L**3   RATES FOR THIS TIME STEP           L**3/T
   ------------------                      ------------------------

                                     IN                                         IN
                                     --                                         --
        PRECIPITATION =         650780.39          PRECIPITATION =         164754.68
           STREAMFLOW =                               STREAMFLOW =                  
     GW BOUNDARY FLOW =                         GW BOUNDARY FLOW =                  


                                    OUT                                        OUT
                                    ---                                        ---
   EVAPOTRANSPIRATION =         147659.88     EVAPOTRANSPIRATION =           7975.76
           STREAMFLOW =          92677.75             STREAMFLOW =           7494.71
     GW BOUNDARY FLOW =           9082.78       GW BOUNDARY FLOW =            648.89

   INFLOWS - OUTFLOWS =         401359.99     INFLOWS - OUTFLOWS =         148635.32
             --------                                   --------

 TOTAL STORAGE CHANGE =         402330.55         STORAGE CHANGE =         148709.31
       --------------                             --------------
         LAND SURFACE =         277680.20           LAND SURFACE =         136619.69
            SOIL ZONE =         436777.21              SOIL ZONE =          34107.47
     UNSATURATED ZONE =        -284452.37       UNSATURATED ZONE =         -19623.49
       SATURATED ZONE =         -27674.48         SATURATED ZONE =          -2394.36

 OVERALL BUDGET ERROR =           -970.57           BUDGET ERROR =            -74.00


  PERCENT DISCREPANCY =             -0.15    PERCENT DISCREPANCY =             -0.04



1
 SUMMARY VOLUMETRIC BUDGET FOR GSFLOW 
 DATE: 10 21 1980              CUMULATIVE TIME STEP:      21
 MODFLOW STRESS PERIOD      2     CURRENT TIME STEP:      21     ITERATIONS:       6

 -----------------------------------------------------------------------------------

   CUMULATIVE VOLUMES               L**3   RATES FOR THIS TIME STEP           L**3/T
   ------------------                      ------------------------

                                     IN                                         IN
                                     --                                         --
        PRECIPITATION =         733156.23          PRECIPITATION =                  
           STREAMFLOW =                               STREAMFLOW =                  
     GW BOUNDARY FLOW =                         GW BOUNDARY FLOW =                  


                                    OUT                                        OUT
                                    ---                                        ---
   EVAPOTRANSPIRATION =         376397.63     EVAPOTRANSPIRATION =          37106.86
           STREAMFLOW =         144891.00             STREAMFLOW =           7105.98
     GW BOUNDARY FLOW =          13624.56       GW BOUNDARY FLOW =            648.77

   INFLOWS - OUTFLOWS =         198243.04     INFLOWS - OUTFLOWS =         -44861.61
             --------                                   --------

 TOTAL STORAGE CHANGE =         199724.29         STORAGE CHANGE =         -44780.96
       --------------                             --------------
         LAND SURFACE =           2252.39           LAND SURFACE =          -3155.26
            SOIL ZONE =         662439.06              SOIL ZONE =         -19833.87
     UNSATURATED ZONE =        -418622.14       UNSATURATED ZONE =         -18801.02
       SATURATED ZONE =         -46345.02         SATURATED ZONE =          -2990.81

 OVERALL BUDGET ERROR =          -1481.25           BUDGET ERROR =            -80.65


  PERCENT DISCREPANCY =             -0.20    PERCENT DISCREPANCY =             -0.18



1
 SUMMARY VOLUMETRIC BUDGET FOR GSFLOW 
 DATE: 10 28 1980              CUMULATIVE TIME STEP:      28
 MODFLOW STRESS PERIOD      2     CURRENT TIME STEP:      28     ITERATIONS:       6

 -----------------------------------------------------------------------------------

   CUMULATIVE VOLUMES               L**3   RATES FOR THIS TIME STEP           L**3/T
   ------------------                      ------------------------

                                     IN                                         IN
                                     --                                         --
        PRECIPITATION =        1070899.96          PRECIPITATION =                  
           STREAMFLOW =                               STREAMFLOW =                  
     GW BOUNDARY FLOW =                         GW BOUNDARY FLOW =                  


                                    OUT                                        OUT
                                    ---                                        ---
   EVAPOTRANSPIRATION =         557225.31     EVAPOTRANSPIRATION =          23594.69
           STREAMFLOW =         199834.81             STREAMFLOW =           7989.31
     GW BOUNDARY FLOW =          18165.91       GW BOUNDARY FLOW =            648.81

   INFLOWS - OUTFLOWS =         295673.93     INFLOWS - OUTFLOWS =         -32232.81
             --------                                   --------

 TOTAL STORAGE CHANGE =         297726.81         STORAGE CHANGE =         -32145.86
       --------------                             --------------
         LAND SURFACE =          24622.16           LAND SURFACE =         -30947.62
            SOIL ZONE =         889246.89              SOIL ZONE =          20269.33
     UNSATURATED ZONE =        -547225.26       UNSATURATED ZONE =         -17994.12
       SATURATED ZONE =         -68916.98         SATURATED ZONE =          -3473.45

 OVERALL BUDGET ERROR =          -2052.89           BUDGET ERROR =            -86.95


  PERCENT DISCREPANCY =             -0.19    PERCENT DISCREPANCY =             -0.27



1
 SUMMARY VOLUMETRIC BUDGET FOR GSFLOW 
 DATE: 11 04 1980              CUMULATIVE TIME STEP:      35
 MODFLOW STRESS PERIOD      2     CURRENT TIME STEP:      35     ITERATIONS:       8

 -----------------------------------------------------------------------------------

   CUMULATIVE VOLUMES               L**3   RATES FOR THIS TIME STEP           L**3/T
   ------------------                      ------------------------

                                     IN                                         IN
                                     --                                         --
        PRECIPITATION =        1070899.96          PRECIPITATION =                  
           STREAMFLOW =                               STREAMFLOW =                  
     GW BOUNDARY FLOW =                         GW BOUNDARY FLOW =                  


                                    OUT                                        OUT
                                    ---                                        ---
   EVAPOTRANSPIRATION =         854959.48     EVAPOTRANSPIRATION =          38437.82
           STREAMFLOW =         252302.68             STREAMFLOW =           7018.30
     GW BOUNDARY FLOW =          22706.92       GW BOUNDARY FLOW =            648.64

   INFLOWS - OUTFLOWS =         -59069.12     INFLOWS - OUTFLOWS =         -46104.77
             --------                                   --------

 TOTAL STORAGE CHANGE =         -56526.12         STORAGE CHANGE =         -46042.74
       --------------                             --------------
         LAND SURFACE =                             LAND SURFACE =                  
            SOIL ZONE =         710230.81              SOIL ZONE =         -24516.75
     UNSATURATED ZONE =        -670653.07       UNSATURATED ZONE =         -17361.09
       SATURATED ZONE =         -96103.86         SATURATED ZONE =          -4164.90

 OVERALL BUDGET ERROR =          -2543.00           BUDGET ERROR =            -62.02


  PERCENT DISCREPANCY =             -0.23    PERCENT DISCREPANCY =             -0.13



1
 SUMMARY VOLUMETRIC BUDGET FOR GSFLOW 
 DATE: 11 11 1980              CUMULATIVE TIME STEP:      42
 MODFLOW STRESS PERIOD      2     CURRENT TIME STEP:      42     ITERATIONS:       7

 -----------------------------------------------------------------------------------

   CUMULATIVE VOLUMES               L**3   RATES FOR THIS TIME STEP           L**3/T
   ------------------                      ------------------------

                                     IN                                         IN
                                     --                                         --
        PRECIPITATION =        1573759.34          PRECIPITATION =         255182.10
           STREAMFLOW =                               STREAMFLOW =                  
     GW BOUNDARY FLOW =                         GW BOUNDARY FLOW =                  


                                    OUT                                        OUT
                                    ---                                        ---
   EVAPOTRANSPIRATION =        1066449.50     EVAPOTRANSPIRATION =          14941.35
           STREAMFLOW =         308270.89             STREAMFLOW =          10769.44
     GW BOUNDARY FLOW =          27247.64       GW BOUNDARY FLOW =            648.84

   INFLOWS - OUTFLOWS =         171791.31     INFLOWS - OUTFLOWS =         228822.47
             --------                                   --------

 TOTAL STORAGE CHANGE =         174871.17         STORAGE CHANGE =         228885.88
       --------------                             --------------
         LAND SURFACE =          78611.70           LAND SURFACE =          76658.21
            SOIL ZONE =        1011575.23              SOIL ZONE =         172853.05
     UNSATURATED ZONE =        -789250.68       UNSATURATED ZONE =         -16535.16
       SATURATED ZONE =        -126065.07         SATURATED ZONE =          -4090.22

 OVERALL BUDGET ERROR =          -3079.87           BUDGET ERROR =            -63.40


  PERCENT DISCREPANCY =             -0.20    PERCENT DISCREPANCY =             -0.02



1
 SUMMARY VOLUMETRIC BUDGET FOR GSFLOW 
 DATE: 11 18 1980              CUMULATIVE TIME STEP:      49
 MODFLOW STRESS PERIOD      2     CURRENT TIME STEP:      49     ITERATIONS:       6

 -----------------------------------------------------------------------------------

   CUMULATIVE VOLUMES               L**3   RATES FOR THIS TIME STEP           L**3/T
   ------------------                      ------------------------

                                     IN                                         IN
                                     --                                         --
        PRECIPITATION =        1573759.34          PRECIPITATION =                  
           STREAMFLOW =                               STREAMFLOW =                  
     GW BOUNDARY FLOW =                         GW BOUNDARY FLOW =                  


                                    OUT                                        OUT
                                    ---                                        ---
   EVAPOTRANSPIRATION =        1154910.87     EVAPOTRANSPIRATION =          16640.32
           STREAMFLOW =         371176.13             STREAMFLOW =           9357.05
     GW BOUNDARY FLOW =          31789.52       GW BOUNDARY FLOW =            648.86

   INFLOWS - OUTFLOWS =          15882.81     INFLOWS - OUTFLOWS =         -26646.24
             --------                                   --------

 TOTAL STORAGE CHANGE =          19603.70         STORAGE CHANGE =         -26545.87
       --------------                             --------------
         LAND SURFACE =           8650.47           LAND SURFACE =          -6201.94
            SOIL ZONE =        1072807.87              SOIL ZONE =            474.61
     UNSATURATED ZONE =        -903178.18       UNSATURATED ZONE =         -16031.74
       SATURATED ZONE =        -158676.46         SATURATED ZONE =          -4786.80

 OVERALL BUDGET ERROR =          -3720.88           BUDGET ERROR =           -100.36


  PERCENT DISCREPANCY =             -0.24    PERCENT DISCREPANCY =             -0.38



1
 SUMMARY VOLUMETRIC BUDGET FOR GSFLOW 
 DATE: 11 25 1980              CUMULATIVE TIME STEP:      56
 MODFLOW STRESS PERIOD      2     CURRENT TIME STEP:      56     ITERATIONS:       8

 -----------------------------------------------------------------------------------

   CUMULATIVE VOLUMES               L**3   RATES FOR THIS TIME STEP           L**3/T
   ------------------                      ------------------------

                                     IN                                         IN
                                     --                                         --
        PRECIPITATION =        1648813.76          PRECIPITATION =                  
           STREAMFLOW =                               STREAMFLOW =                  
     GW BOUNDARY FLOW =                         GW BOUNDARY FLOW =                  


                                    OUT                                        OUT
                                    ---                                        ---
   EVAPOTRANSPIRATION =        1230203.48     EVAPOTRANSPIRATION =           8792.89
           STREAMFLOW =         438359.30             STREAMFLOW =           9949.44
     GW BOUNDARY FLOW =          36331.80       GW BOUNDARY FLOW =            648.93

   INFLOWS - OUTFLOWS =         -56080.82     INFLOWS - OUTFLOWS =         -19391.26
             --------                                   --------

 TOTAL STORAGE CHANGE =         -51806.31         STORAGE CHANGE =         -19326.27
       --------------                             --------------
         LAND SURFACE =          55166.56           LAND SURFACE =          -8744.72
            SOIL ZONE =        1100544.90              SOIL ZONE =          10159.50
     UNSATURATED ZONE =       -1012809.13       UNSATURATED ZONE =         -15404.05
       SATURATED ZONE =        -194708.65         SATURATED ZONE =          -5337.00

 OVERALL BUDGET ERROR =          -4274.51           BUDGET ERROR =            -64.99


  PERCENT DISCREPANCY =             -0.25    PERCENT DISCREPANCY =             -0.34



1
 SUMMARY VOLUMETRIC BUDGET FOR GSFLOW 
 DATE: 12 02 1980              CUMULATIVE TIME STEP:      63
 MODFLOW STRESS PERIOD      2     CURRENT TIME STEP:      63     ITERATIONS:       8

 -----------------------------------------------------------------------------------

   CUMULATIVE VOLUMES               L**3   RATES FOR THIS TIME STEP           L**3/T
   ------------------                      ------------------------

                                     IN                                         IN
                                     --                                         --
        PRECIPITATION =        2076620.74          PRECIPITATION =                  
           STREAMFLOW =                               STREAMFLOW =                  
     GW BOUNDARY FLOW =                         GW BOUNDARY FLOW =                  


                                    OUT                                        OUT
                                    ---                                        ---
   EVAPOTRANSPIRATION =        1423644.26     EVAPOTRANSPIRATION =          34188.85
           STREAMFLOW =         523308.75             STREAMFLOW =          15235.53
     GW BOUNDARY FLOW =          40875.74       GW BOUNDARY FLOW =            649.44

   INFLOWS - OUTFLOWS =          88791.99     INFLOWS - OUTFLOWS =         -50073.82
             --------                                   --------

 TOTAL STORAGE CHANGE =          93499.35         STORAGE CHANGE =         -50018.17
       --------------                             --------------
         LAND SURFACE =         152558.40           LAND SURFACE =         -75202.38
            SOIL ZONE =        1286009.60              SOIL ZONE =          42854.46
     UNSATURATED ZONE =       -1114357.44       UNSATURATED ZONE =         -13044.33
       SATURATED ZONE =        -230711.22         SATURATED ZONE =          -4625.92

 OVERALL BUDGET ERROR =          -4707.36           BUDGET ERROR =            -55.65


  PERCENT DISCREPANCY =             -0.23    PERCENT DISCREPANCY =             -0.11



1
 SUMMARY VOLUMETRIC BUDGET FOR GSFLOW 
 DATE: 12 09 1980              CUMULATIVE TIME STEP:      70
 MODFLOW STRESS PERIOD      2     CURRENT TIME STEP:      70     ITERATIONS:       8

 -----------------------------------------------------------------------------------

   CUMULATIVE VOLUMES               L**3   RATES FOR THIS TIME STEP           L**3/T
   ------------------                      ------------------------

                                     IN                                         IN
                                     --                                         --
        PRECIPITATION =        4284363.13          PRECIPITATION =                  
           STREAMFLOW =                               STREAMFLOW =                  
     GW BOUNDARY FLOW =                         GW BOUNDARY FLOW =                  


                                    OUT                                        OUT
                                    ---                                        ---
   EVAPOTRANSPIRATION =        1447062.90     EVAPOTRANSPIRATION =           2942.37
           STREAMFLOW =         622578.73             STREAMFLOW =          14460.14
     GW BOUNDARY FLOW =          45422.60       GW BOUNDARY FLOW =            649.64

   INFLOWS - OUTFLOWS =        2169298.90     INFLOWS - OUTFLOWS =         -18052.16
             --------                                   --------

 TOTAL STORAGE CHANGE =        2174482.77         STORAGE CHANGE =         -18003.71
       --------------                             --------------
         LAND SURFACE =        2335225.13           LAND SURFACE =          -2942.37
            SOIL ZONE =        1321842.01              SOIL ZONE =           5169.10
     UNSATURATED ZONE =       -1212719.80       UNSATURATED ZONE =         -14220.02
       SATURATED ZONE =        -269864.58         SATURATED ZONE =          -6010.42

 OVERALL BUDGET ERROR =          -5183.87           BUDGET ERROR =            -48.45


  PERCENT DISCREPANCY =             -0.12    PERCENT DISCREPANCY =             -0.27



1
 SUMMARY VOLUMETRIC BUDGET FOR GSFLOW 
 DATE: 12 16 1980              CUMULATIVE TIME STEP:      77
 MODFLOW STRESS PERIOD      2     CURRENT TIME STEP:      77     ITERATIONS:       7

 -----------------------------------------------------------------------------------

   CUMULATIVE VOLUMES               L**3   RATES FOR THIS TIME STEP           L**3/T
   ------------------                      ------------------------

                                     IN                                         IN
                                     --                                         --
        PRECIPITATION =        4284363.13          PRECIPITATION =                  
           STREAMFLOW =                               STREAMFLOW =                  
     GW BOUNDARY FLOW =                         GW BOUNDARY FLOW =                  


                                    OUT                                        OUT
                                    ---                                        ---
   EVAPOTRANSPIRATION =        1589062.52     EVAPOTRANSPIRATION =          33888.91
           STREAMFLOW =         742122.21             STREAMFLOW =          24744.13
     GW BOUNDARY FLOW =          49971.18       GW BOUNDARY FLOW =            650.23

   INFLOWS - OUTFLOWS =        1903207.22     INFLOWS - OUTFLOWS =         -59283.28
             --------                                   --------

 TOTAL STORAGE CHANGE =        1908819.55         STORAGE CHANGE =         -59212.08
       --------------                             --------------
         LAND SURFACE =        2023963.99           LAND SURFACE =        -129017.63
            SOIL ZONE =        1498053.27              SOIL ZONE =          83497.57
     UNSATURATED ZONE =       -1302770.79       UNSATURATED ZONE =          -9208.12
       SATURATED ZONE =        -310426.92         SATURATED ZONE =          -4483.90

 OVERALL BUDGET ERROR =          -5612.34           BUDGET ERROR =            -71.20


  PERCENT DISCREPANCY =             -0.13    PERCENT DISCREPANCY =             -0.12



1
 SUMMARY VOLUMETRIC BUDGET FOR GSFLOW 
 DATE: 12 23 1980              CUMULATIVE TIME STEP:      84
 MODFLOW STRESS PERIOD      2     CURRENT TIME STEP:      84     ITERATIONS:       9

 -----------------------------------------------------------------------------------

   CUMULATIVE VOLUMES               L**3   RATES FOR THIS TIME STEP           L**3/T
   ------------------                      ------------------------

                                     IN                                         IN
                                     --                                         --
        PRECIPITATION =        4516755.31          PRECIPITATION =                  
           STREAMFLOW =                               STREAMFLOW =                  
     GW BOUNDARY FLOW =                         GW BOUNDARY FLOW =                  


                                    OUT                                        OUT
                                    ---                                        ---
   EVAPOTRANSPIRATION =        1795114.90     EVAPOTRANSPIRATION =          35140.80
           STREAMFLOW =         968029.11             STREAMFLOW =          30090.59
     GW BOUNDARY FLOW =          54531.42       GW BOUNDARY FLOW =            651.90

   INFLOWS - OUTFLOWS =        1699079.89     INFLOWS - OUTFLOWS =         -65883.28
             --------                                   --------

 TOTAL STORAGE CHANGE =        1705008.39         STORAGE CHANGE =         -65846.22
       --------------                             --------------
         LAND SURFACE =        1433308.52           LAND SURFACE =         -48192.94
            SOIL ZONE =        1956963.50              SOIL ZONE =          -6624.38
     UNSATURATED ZONE =       -1346320.07       UNSATURATED ZONE =          -6291.24
       SATURATED ZONE =        -338943.55         SATURATED ZONE =          -4737.67

 OVERALL BUDGET ERROR =          -5928.50           BUDGET ERROR =            -37.06


  PERCENT DISCREPANCY =             -0.13    PERCENT DISCREPANCY =             -0.06



1
 SUMMARY VOLUMETRIC BUDGET FOR GSFLOW 
 DATE: 12 30 1980              CUMULATIVE TIME STEP:      91
 MODFLOW STRESS PERIOD      2     CURRENT TIME STEP:      91     ITERATIONS:       9

 -----------------------------------------------------------------------------------

   CUMULATIVE VOLUMES               L**3   RATES FOR THIS TIME STEP           L**3/T
   ------------------                      ------------------------

                                     IN                                         IN
                                     --                                         --
        PRECIPITATION =        4516755.31          PRECIPITATION =                  
           STREAMFLOW =                               STREAMFLOW =                  
     GW BOUNDARY FLOW =                         GW BOUNDARY FLOW =                  


                                    OUT                                        OUT
                                    ---                                        ---
   EVAPOTRANSPIRATION =        2155741.25     EVAPOTRANSPIRATION =          45887.39
           STREAMFLOW =        1211962.68             STREAMFLOW =          27166.02
     GW BOUNDARY FLOW =          59097.99       GW BOUNDARY FLOW =            652.35

   INFLOWS - OUTFLOWS =        1089953.39     INFLOWS - OUTFLOWS =         -73705.75
             --------                                   --------

 TOTAL STORAGE CHANGE =        1096059.42         STORAGE CHANGE =         -73685.14
       --------------                             --------------
         LAND SURFACE =         641176.37           LAND SURFACE =         -40371.69
            SOIL ZONE =        2181736.12              SOIL ZONE =         -23717.75
     UNSATURATED ZONE =       -1361631.85       UNSATURATED ZONE =          -5204.51
       SATURATED ZONE =        -365221.21         SATURATED ZONE =          -4391.19

 OVERALL BUDGET ERROR =          -6106.03           BUDGET ERROR =            -20.61


  PERCENT DISCREPANCY =             -0.14    PERCENT DISCREPANCY =             -0.03



1
 SUMMARY VOLUMETRIC BUDGET FOR GSFLOW 
 DATE: 01 06 1981              CUMULATIVE TIME STEP:      98
 MODFLOW STRESS PERIOD      2     CURRENT TIME STEP:      98     ITERATIONS:       8

 -----------------------------------------------------------------------------------

   CUMULATIVE VOLUMES               L**3   RATES FOR THIS TIME STEP           L**3/T
   ------------------                      ------------------------

                                     IN                                         IN
                                     --                                         --
        PRECIPITATION =        5004445.82          PRECIPITATION =                  
           STREAMFLOW =                               STREAMFLOW =                  
     GW BOUNDARY FLOW =                         GW BOUNDARY FLOW =                  


                                    OUT                                        OUT
                                    ---                                        ---
   EVAPOTRANSPIRATION =        2383663.39     EVAPOTRANSPIRATION =          21388.47
           STREAMFLOW =        1365810.13             STREAMFLOW =          21180.16
     GW BOUNDARY FLOW =          63659.51       GW BOUNDARY FLOW =            651.25

   INFLOWS - OUTFLOWS =        1191312.78     INFLOWS - OUTFLOWS =         -43219.88
             --------                                   --------

 TOTAL STORAGE CHANGE =        1197639.78         STORAGE CHANGE =         -43180.21
       --------------                             --------------
         LAND SURFACE =         837061.68           LAND SURFACE =         -30417.13
            SOIL ZONE =        2192536.90              SOIL ZONE =           3031.63
     UNSATURATED ZONE =       -1428734.74       UNSATURATED ZONE =         -10080.02
       SATURATED ZONE =        -403224.07         SATURATED ZONE =          -5714.68

 OVERALL BUDGET ERROR =          -6327.00           BUDGET ERROR =            -39.67


  PERCENT DISCREPANCY =             -0.13    PERCENT DISCREPANCY =             -0.09



1
 SUMMARY VOLUMETRIC BUDGET FOR GSFLOW 
 DATE: 01 13 1981              CUMULATIVE TIME STEP:     105
 MODFLOW STRESS PERIOD      2     CURRENT TIME STEP:     105     ITERATIONS:       7

 -----------------------------------------------------------------------------------

   CUMULATIVE VOLUMES               L**3   RATES FOR THIS TIME STEP           L**3/T
   ------------------                      ------------------------

                                     IN                                         IN
                                     --                                         --
        PRECIPITATION =        5004445.82          PRECIPITATION =                  
           STREAMFLOW =                               STREAMFLOW =                  
     GW BOUNDARY FLOW =                         GW BOUNDARY FLOW =                  


                                    OUT                                        OUT
                                    ---                                        ---
   EVAPOTRANSPIRATION =        2601178.24     EVAPOTRANSPIRATION =          44454.58
           STREAMFLOW =        1513562.78             STREAMFLOW =          20001.62
     GW BOUNDARY FLOW =          68216.62       GW BOUNDARY FLOW =            650.83

   INFLOWS - OUTFLOWS =         821488.17     INFLOWS - OUTFLOWS =         -65107.03
             --------                                   --------

 TOTAL STORAGE CHANGE =         828198.58         STORAGE CHANGE =         -65045.10
       --------------                             --------------
         LAND SURFACE =         626703.68           LAND SURFACE =         -38989.03
            SOIL ZONE =        2141703.66              SOIL ZONE =         -10386.55
     UNSATURATED ZONE =       -1493721.93       UNSATURATED ZONE =          -9174.81
       SATURATED ZONE =        -446486.83         SATURATED ZONE =          -6494.71

 OVERALL BUDGET ERROR =          -6710.40           BUDGET ERROR =            -61.93


  PERCENT DISCREPANCY =             -0.13    PERCENT DISCREPANCY =             -0.10



1
 SUMMARY VOLUMETRIC BUDGET FOR GSFLOW 
 DATE: 01 20 1981              CUMULATIVE TIME STEP:     112
 MODFLOW STRESS PERIOD      2     CURRENT TIME STEP:     112     ITERATIONS:       8

 -----------------------------------------------------------------------------------

   CUMULATIVE VOLUMES               L**3   RATES FOR THIS TIME STEP           L**3/T
   ------------------                      ------------------------

                                     IN                                         IN
                                     --                                         --
        PRECIPITATION =        5170468.48          PRECIPITATION =          41503.16
           STREAMFLOW =                               STREAMFLOW =                  
     GW BOUNDARY FLOW =                         GW BOUNDARY FLOW =                  


                                    OUT                                        OUT
                                    ---                                        ---
   EVAPOTRANSPIRATION =        2883448.02     EVAPOTRANSPIRATION =          35212.06
           STREAMFLOW =        1654849.04             STREAMFLOW =          20081.35
     GW BOUNDARY FLOW =          72771.39       GW BOUNDARY FLOW =            650.64

   INFLOWS - OUTFLOWS =         559400.03     INFLOWS - OUTFLOWS =         -14440.89
             --------                                   --------

 TOTAL STORAGE CHANGE =         566441.78         STORAGE CHANGE =         -14406.63
       --------------                             --------------
         LAND SURFACE =         436309.37           LAND SURFACE =           4324.83
            SOIL ZONE =        2147614.24              SOIL ZONE =         -10140.20
     UNSATURATED ZONE =       -1526440.46       UNSATURATED ZONE =          -1914.48
       SATURATED ZONE =        -491041.36         SATURATED ZONE =          -6676.77

 OVERALL BUDGET ERROR =          -7041.76           BUDGET ERROR =            -34.26


  PERCENT DISCREPANCY =             -0.14    PERCENT DISCREPANCY =             -0.06



1
 SUMMARY VOLUMETRIC BUDGET FOR GSFLOW 
 DATE: 01 27 1981              CUMULATIVE TIME STEP:     119
 MODFLOW STRESS PERIOD      2     CURRENT TIME STEP:     119     ITERATIONS:       9

 -----------------------------------------------------------------------------------

   CUMULATIVE VOLUMES               L**3   RATES FOR THIS TIME STEP           L**3/T
   ------------------                      ------------------------

                                     IN                                         IN
                                     --                                         --
        PRECIPITATION =        8646542.90          PRECIPITATION =        2936504.96
           STREAMFLOW =                               STREAMFLOW =                  
     GW BOUNDARY FLOW =                         GW BOUNDARY FLOW =                  


                                    OUT                                        OUT
                                    ---                                        ---
   EVAPOTRANSPIRATION =        3118016.21     EVAPOTRANSPIRATION =          13121.10
           STREAMFLOW =        1800222.42             STREAMFLOW =          18659.23
     GW BOUNDARY FLOW =          77325.71       GW BOUNDARY FLOW =            650.44

   INFLOWS - OUTFLOWS =        3650978.56     INFLOWS - OUTFLOWS =        2904074.19
             --------                                   --------

 TOTAL STORAGE CHANGE =        3658167.79         STORAGE CHANGE =        2904098.80
       --------------                             --------------
         LAND SURFACE =        3540208.69           LAND SURFACE =        2923350.57
            SOIL ZONE =        2170192.27              SOIL ZONE =          -7607.40
     UNSATURATED ZONE =       -1515772.25       UNSATURATED ZONE =          -4734.57
       SATURATED ZONE =        -536460.91         SATURATED ZONE =          -6909.80

 OVERALL BUDGET ERROR =          -7189.23           BUDGET ERROR =            -24.61


  PERCENT DISCREPANCY =             -0.08    PERCENT DISCREPANCY =             -0.00



1
 SUMMARY VOLUMETRIC BUDGET FOR GSFLOW 
 DATE: 02 03 1981              CUMULATIVE TIME STEP:     126
 MODFLOW STRESS PERIOD      2     CURRENT TIME STEP:     126     ITERATIONS:       9

 -----------------------------------------------------------------------------------

   CUMULATIVE VOLUMES               L**3   RATES FOR THIS TIME STEP           L**3/T
   ------------------                      ------------------------

                                     IN                                         IN
                                     --                                         --
        PRECIPITATION =        1.1739D+07          PRECIPITATION =                  
           STREAMFLOW =                               STREAMFLOW =                  
     GW BOUNDARY FLOW =                         GW BOUNDARY FLOW =                  


                                    OUT                                        OUT
                                    ---                                        ---
   EVAPOTRANSPIRATION =        3154529.10     EVAPOTRANSPIRATION =           6975.55
           STREAMFLOW =        1926755.29             STREAMFLOW =          17968.80
     GW BOUNDARY FLOW =          81877.80       GW BOUNDARY FLOW =            650.25

   INFLOWS - OUTFLOWS =        6575535.59     INFLOWS - OUTFLOWS =         -25594.60
             --------                                   --------

 TOTAL STORAGE CHANGE =        6582957.70         STORAGE CHANGE =         -25567.83
       --------------                             --------------
         LAND SURFACE =        6595850.65           LAND SURFACE =          -6975.55
            SOIL ZONE =        2159039.37              SOIL ZONE =            451.73
     UNSATURATED ZONE =       -1583655.01       UNSATURATED ZONE =         -11333.44
       SATURATED ZONE =        -588277.31         SATURATED ZONE =          -7710.57

 OVERALL BUDGET ERROR =          -7422.11           BUDGET ERROR =            -26.77


  PERCENT DISCREPANCY =             -0.06    PERCENT DISCREPANCY =             -0.10



1
 SUMMARY VOLUMETRIC BUDGET FOR GSFLOW 
 DATE: 02 10 1981              CUMULATIVE TIME STEP:     133
 MODFLOW STRESS PERIOD      2     CURRENT TIME STEP:     133     ITERATIONS:       7

 -----------------------------------------------------------------------------------

   CUMULATIVE VOLUMES               L**3   RATES FOR THIS TIME STEP           L**3/T
   ------------------                      ------------------------

                                     IN                                         IN
                                     --                                         --
        PRECIPITATION =        1.1838D+07          PRECIPITATION =                  
           STREAMFLOW =                               STREAMFLOW =                  
     GW BOUNDARY FLOW =                         GW BOUNDARY FLOW =                  


                                    OUT                                        OUT
                                    ---                                        ---
   EVAPOTRANSPIRATION =        3279930.34     EVAPOTRANSPIRATION =          32880.24
           STREAMFLOW =        2052803.06             STREAMFLOW =          18033.59
     GW BOUNDARY FLOW =          86429.54       GW BOUNDARY FLOW =            650.24

   INFLOWS - OUTFLOWS =        6419100.29     INFLOWS - OUTFLOWS =         -51564.07
             --------                                   --------

 TOTAL STORAGE CHANGE =        6426793.29         STORAGE CHANGE =         -51488.41
       --------------                             --------------
         LAND SURFACE =        6570014.87           LAND SURFACE =         -32880.24
            SOIL ZONE =        2163253.20              SOIL ZONE =            572.34
     UNSATURATED ZONE =       -1661798.50       UNSATURATED ZONE =         -10825.02
       SATURATED ZONE =        -644676.28         SATURATED ZONE =          -8355.49

 OVERALL BUDGET ERROR =          -7692.99           BUDGET ERROR =            -75.66


  PERCENT DISCREPANCY =             -0.06    PERCENT DISCREPANCY =             -0.15



1
 SUMMARY VOLUMETRIC BUDGET FOR GSFLOW 
 DATE: 02 17 1981              CUMULATIVE TIME STEP:     140
 MODFLOW STRESS PERIOD      2     CURRENT TIME STEP:     140     ITERATIONS:      14

 -----------------------------------------------------------------------------------

   CUMULATIVE VOLUMES               L**3   RATES FOR THIS TIME STEP           L**3/T
   ------------------                      ------------------------

                                     IN                                         IN
                                     --                                         --
        PRECIPITATION =        1.2765D+07          PRECIPITATION =          68928.68
           STREAMFLOW =                               STREAMFLOW =                  
     GW BOUNDARY FLOW =                         GW BOUNDARY FLOW =                  


                                    OUT                                        OUT
                                    ---                                        ---
   EVAPOTRANSPIRATION =        3618019.90     EVAPOTRANSPIRATION =          68604.82
           STREAMFLOW =        2593967.23             STREAMFLOW =         124817.73
     GW BOUNDARY FLOW =          91003.31       GW BOUNDARY FLOW =            656.82

   INFLOWS - OUTFLOWS =        6461990.23     INFLOWS - OUTFLOWS =        -125150.70
             --------                                   --------

 TOTAL STORAGE CHANGE =        6469966.00         STORAGE CHANGE =        -125134.78
       --------------                             --------------
         LAND SURFACE =        5590136.74           LAND SURFACE =        -278668.69
            SOIL ZONE =        2957732.62              SOIL ZONE =          72138.81
     UNSATURATED ZONE =       -1416851.53       UNSATURATED ZONE =          78942.09
       SATURATED ZONE =        -661051.83         SATURATED ZONE =           2453.01

 OVERALL BUDGET ERROR =          -7975.77           BUDGET ERROR =            -15.92


  PERCENT DISCREPANCY =             -0.06    PERCENT DISCREPANCY =             -0.01



1
 SUMMARY VOLUMETRIC BUDGET FOR GSFLOW 
 DATE: 02 24 1981              CUMULATIVE TIME STEP:     147
 MODFLOW STRESS PERIOD      2     CURRENT TIME STEP:     147     ITERATIONS:      14

 -----------------------------------------------------------------------------------

   CUMULATIVE VOLUMES               L**3   RATES FOR THIS TIME STEP           L**3/T
   ------------------                      ------------------------

                                     IN                                         IN
                                     --                                         --
        PRECIPITATION =        1.3179D+07          PRECIPITATION =         344647.71
           STREAMFLOW =                               STREAMFLOW =                  
     GW BOUNDARY FLOW =                         GW BOUNDARY FLOW =                  


                                    OUT                                        OUT
                                    ---                                        ---
   EVAPOTRANSPIRATION =        3959342.17     EVAPOTRANSPIRATION =          18832.86
           STREAMFLOW =        3151386.95             STREAMFLOW =          52021.07
     GW BOUNDARY FLOW =          95596.36       GW BOUNDARY FLOW =            655.14

   INFLOWS - OUTFLOWS =        5972232.98     INFLOWS - OUTFLOWS =         273138.64
             --------                                   --------

 TOTAL STORAGE CHANGE =        5980173.08         STORAGE CHANGE =         273142.83
       --------------                             --------------
         LAND SURFACE =        4984331.51           LAND SURFACE =         286391.25
            SOIL ZONE =        2697188.57              SOIL ZONE =         -43322.64
     UNSATURATED ZONE =       -1063802.57       UNSATURATED ZONE =          27645.17
       SATURATED ZONE =        -637544.43         SATURATED ZONE =           2429.05

 OVERALL BUDGET ERROR =          -7940.10           BUDGET ERROR =             -4.19


  PERCENT DISCREPANCY =             -0.06    PERCENT DISCREPANCY =             -0.00



1
 SUMMARY VOLUMETRIC BUDGET FOR GSFLOW 
 DATE: 03 03 1981              CUMULATIVE TIME STEP:     154
 MODFLOW STRESS PERIOD      2     CURRENT TIME STEP:     154     ITERATIONS:      11

 -----------------------------------------------------------------------------------

   CUMULATIVE VOLUMES               L**3   RATES FOR THIS TIME STEP           L**3/T
   ------------------                      ------------------------

                                     IN                                         IN
                                     --                                         --
        PRECIPITATION =        1.3447D+07          PRECIPITATION =                  
           STREAMFLOW =                               STREAMFLOW =                  
     GW BOUNDARY FLOW =                         GW BOUNDARY FLOW =                  


                                    OUT                                        OUT
                                    ---                                        ---
   EVAPOTRANSPIRATION =        4120023.77     EVAPOTRANSPIRATION =          45353.37
           STREAMFLOW =        3375193.54             STREAMFLOW =          27756.12
     GW BOUNDARY FLOW =         100169.25       GW BOUNDARY FLOW =            652.32

   INFLOWS - OUTFLOWS =        5851232.24     INFLOWS - OUTFLOWS =         -73761.81
             --------                                   --------

 TOTAL STORAGE CHANGE =        5859069.53         STORAGE CHANGE =         -73781.05
       --------------                             --------------
         LAND SURFACE =        5068234.96           LAND SURFACE =         -66032.09
            SOIL ZONE =        2489411.42              SOIL ZONE =           2838.49
     UNSATURATED ZONE =       -1056095.49       UNSATURATED ZONE =          -8520.26
       SATURATED ZONE =        -642481.36         SATURATED ZONE =          -2067.19

 OVERALL BUDGET ERROR =          -7837.29           BUDGET ERROR =             19.24


  PERCENT DISCREPANCY =             -0.06    PERCENT DISCREPANCY =              0.03



1
 SUMMARY VOLUMETRIC BUDGET FOR GSFLOW 
 DATE: 03 10 1981              CUMULATIVE TIME STEP:     161
 MODFLOW STRESS PERIOD      2     CURRENT TIME STEP:     161     ITERATIONS:      10

 -----------------------------------------------------------------------------------

   CUMULATIVE VOLUMES               L**3   RATES FOR THIS TIME STEP           L**3/T
   ------------------                      ------------------------

                                     IN                                         IN
                                     --                                         --
        PRECIPITATION =        1.3493D+07          PRECIPITATION =                  
           STREAMFLOW =                               STREAMFLOW =                  
     GW BOUNDARY FLOW =                         GW BOUNDARY FLOW =                  


                                    OUT                                        OUT
                                    ---                                        ---
   EVAPOTRANSPIRATION =        4465806.21     EVAPOTRANSPIRATION =          72809.14
           STREAMFLOW =        3611072.37             STREAMFLOW =          43638.19
     GW BOUNDARY FLOW =         104735.29       GW BOUNDARY FLOW =            652.93

   INFLOWS - OUTFLOWS =        5311340.64     INFLOWS - OUTFLOWS =        -117100.27
             --------                                   --------

 TOTAL STORAGE CHANGE =        5319113.01         STORAGE CHANGE =        -117111.64
       --------------                             --------------
         LAND SURFACE =        4391776.94           LAND SURFACE =        -169082.62
            SOIL ZONE =        2603418.15              SOIL ZONE =          28948.73
     UNSATURATED ZONE =       -1021627.74       UNSATURATED ZONE =          23451.43
       SATURATED ZONE =        -654454.34         SATURATED ZONE =           -429.17

 OVERALL BUDGET ERROR =          -7772.37           BUDGET ERROR =             11.37


  PERCENT DISCREPANCY =             -0.06    PERCENT DISCREPANCY =              0.01



1
 SUMMARY VOLUMETRIC BUDGET FOR GSFLOW 
 DATE: 03 17 1981              CUMULATIVE TIME STEP:     168
 MODFLOW STRESS PERIOD      2     CURRENT TIME STEP:     168     ITERATIONS:       9

 -----------------------------------------------------------------------------------

   CUMULATIVE VOLUMES               L**3   RATES FOR THIS TIME STEP           L**3/T
   ------------------                      ------------------------

                                     IN                                         IN
                                     --                                         --
        PRECIPITATION =        1.3745D+07          PRECIPITATION =                  
           STREAMFLOW =                               STREAMFLOW =                  
     GW BOUNDARY FLOW =                         GW BOUNDARY FLOW =                  


                                    OUT                                        OUT
                                    ---                                        ---
   EVAPOTRANSPIRATION =        4834210.94     EVAPOTRANSPIRATION =          40234.43
           STREAMFLOW =        3838020.04             STREAMFLOW =          24123.23
     GW BOUNDARY FLOW =         109302.57       GW BOUNDARY FLOW =            651.88

   INFLOWS - OUTFLOWS =        4962969.27     INFLOWS - OUTFLOWS =         -65009.53
             --------                                   --------

 TOTAL STORAGE CHANGE =        4970652.74         STORAGE CHANGE =         -65012.41
       --------------                             --------------
         LAND SURFACE =        4202563.01           LAND SURFACE =         -39897.20
            SOIL ZONE =        2437965.98              SOIL ZONE =          -5412.23
     UNSATURATED ZONE =        -999560.33       UNSATURATED ZONE =         -15649.32
       SATURATED ZONE =        -670315.92         SATURATED ZONE =          -4053.66

 OVERALL BUDGET ERROR =          -7683.47           BUDGET ERROR =              2.88


  PERCENT DISCREPANCY =             -0.06    PERCENT DISCREPANCY =              0.00



1
 SUMMARY VOLUMETRIC BUDGET FOR GSFLOW 
 DATE: 03 24 1981              CUMULATIVE TIME STEP:     175
 MODFLOW STRESS PERIOD      2     CURRENT TIME STEP:     175     ITERATIONS:       9

 -----------------------------------------------------------------------------------

   CUMULATIVE VOLUMES               L**3   RATES FOR THIS TIME STEP           L**3/T
   ------------------                      ------------------------

                                     IN                                         IN
                                     --                                         --
        PRECIPITATION =        1.4367D+07          PRECIPITATION =                  
           STREAMFLOW =                               STREAMFLOW =                  
     GW BOUNDARY FLOW =                         GW BOUNDARY FLOW =                  


                                    OUT                                        OUT
                                    ---                                        ---
   EVAPOTRANSPIRATION =        5189993.20     EVAPOTRANSPIRATION =          87430.63
           STREAMFLOW =        4013657.82             STREAMFLOW =          26789.09
     GW BOUNDARY FLOW =         113863.01       GW BOUNDARY FLOW =            651.45

   INFLOWS - OUTFLOWS =        5049242.21     INFLOWS - OUTFLOWS =        -114871.17
             --------                                   --------

 TOTAL STORAGE CHANGE =        5056957.17         STORAGE CHANGE =        -114866.62
       --------------                             --------------
         LAND SURFACE =        4477883.40           LAND SURFACE =         -65021.85
            SOIL ZONE =        2350759.86              SOIL ZONE =         -41066.67
     UNSATURATED ZONE =       -1068864.22       UNSATURATED ZONE =          -3960.81
       SATURATED ZONE =        -702821.87         SATURATED ZONE =          -4817.30

 OVERALL BUDGET ERROR =          -7714.97           BUDGET ERROR =             -4.55


  PERCENT DISCREPANCY =             -0.05    PERCENT DISCREPANCY =             -0.00



1
 SUMMARY VOLUMETRIC BUDGET FOR GSFLOW 
 DATE: 03 31 1981              CUMULATIVE TIME STEP:     182
 MODFLOW STRESS PERIOD      2     CURRENT TIME STEP:     182     ITERATIONS:      12

 -----------------------------------------------------------------------------------

   CUMULATIVE VOLUMES               L**3   RATES FOR THIS TIME STEP           L**3/T
   ------------------                      ------------------------

                                     IN                                         IN
                                     --                                         --
        PRECIPITATION =        1.5777D+07          PRECIPITATION =                  
           STREAMFLOW =                               STREAMFLOW =                  
     GW BOUNDARY FLOW =                         GW BOUNDARY FLOW =                  


                                    OUT                                        OUT
                                    ---                                        ---
   EVAPOTRANSPIRATION =        5619923.97     EVAPOTRANSPIRATION =          54089.89
           STREAMFLOW =        4522403.78             STREAMFLOW =          37101.01
     GW BOUNDARY FLOW =         118445.01       GW BOUNDARY FLOW =            653.60

   INFLOWS - OUTFLOWS =        5515993.42     INFLOWS - OUTFLOWS =         -91844.50
             --------                                   --------

 TOTAL STORAGE CHANGE =        5523636.33         STORAGE CHANGE =         -91866.10
       --------------                             --------------
         LAND SURFACE =        4494493.37           LAND SURFACE =         -55486.84
            SOIL ZONE =        2547198.43              SOIL ZONE =         -41725.74
     UNSATURATED ZONE =        -823507.19       UNSATURATED ZONE =           5910.71
       SATURATED ZONE =        -694548.27         SATURATED ZONE =           -564.23

 OVERALL BUDGET ERROR =          -7642.91           BUDGET ERROR =             21.60


  PERCENT DISCREPANCY =             -0.05    PERCENT DISCREPANCY =              0.02



1
 SUMMARY VOLUMETRIC BUDGET FOR GSFLOW 
 DATE: 04 07 1981              CUMULATIVE TIME STEP:     189
 MODFLOW STRESS PERIOD      2     CURRENT TIME STEP:     189     ITERATIONS:      10

 -----------------------------------------------------------------------------------

   CUMULATIVE VOLUMES               L**3   RATES FOR THIS TIME STEP           L**3/T
   ------------------                      ------------------------

                                     IN                                         IN
                                     --                                         --
        PRECIPITATION =        1.6121D+07          PRECIPITATION =                  
           STREAMFLOW =                               STREAMFLOW =                  
     GW BOUNDARY FLOW =                         GW BOUNDARY FLOW =                  


                                    OUT                                        OUT
                                    ---                                        ---
   EVAPOTRANSPIRATION =        6245988.10     EVAPOTRANSPIRATION =         103842.76
           STREAMFLOW =        4840688.38             STREAMFLOW =          43396.58
     GW BOUNDARY FLOW =         123020.31       GW BOUNDARY FLOW =            653.73

   INFLOWS - OUTFLOWS =        4911786.36     INFLOWS - OUTFLOWS =        -147893.08
             --------                                   --------

 TOTAL STORAGE CHANGE =        4919301.71         STORAGE CHANGE =        -147915.74
       --------------                             --------------
         LAND SURFACE =        3870392.88           LAND SURFACE =        -138669.71
            SOIL ZONE =        2478576.66              SOIL ZONE =         -20331.91
     UNSATURATED ZONE =        -739049.10       UNSATURATED ZONE =          10759.39
       SATURATED ZONE =        -690618.73         SATURATED ZONE =            326.49

 OVERALL BUDGET ERROR =          -7515.35           BUDGET ERROR =             22.66


  PERCENT DISCREPANCY =             -0.05    PERCENT DISCREPANCY =              0.02



1
 SUMMARY VOLUMETRIC BUDGET FOR GSFLOW 
 DATE: 04 14 1981              CUMULATIVE TIME STEP:     196
 MODFLOW STRESS PERIOD      2     CURRENT TIME STEP:     196     ITERATIONS:      13

 -----------------------------------------------------------------------------------

   CUMULATIVE VOLUMES               L**3   RATES FOR THIS TIME STEP           L**3/T
   ------------------                      ------------------------

                                     IN                                         IN
                                     --                                         --
        PRECIPITATION =        1.6121D+07          PRECIPITATION =                  
           STREAMFLOW =                               STREAMFLOW =                  
     GW BOUNDARY FLOW =                         GW BOUNDARY FLOW =                  


                                    OUT                                        OUT
                                    ---                                        ---
   EVAPOTRANSPIRATION =        7156677.84     EVAPOTRANSPIRATION =         191910.02
           STREAMFLOW =        5167820.12             STREAMFLOW =          55463.81
     GW BOUNDARY FLOW =         127595.69       GW BOUNDARY FLOW =            653.68

   INFLOWS - OUTFLOWS =        3669389.50     INFLOWS - OUTFLOWS =        -248027.51
             --------                                   --------

 TOTAL STORAGE CHANGE =        3676791.80         STORAGE CHANGE =        -248035.96
       --------------                             --------------
         LAND SURFACE =        2621639.71           LAND SURFACE =        -253015.87
            SOIL ZONE =        2387020.36              SOIL ZONE =         -16778.22
     UNSATURATED ZONE =        -647931.44       UNSATURATED ZONE =          19708.56
       SATURATED ZONE =        -683936.83         SATURATED ZONE =           2049.57

 OVERALL BUDGET ERROR =          -7402.30           BUDGET ERROR =              8.45


  PERCENT DISCREPANCY =             -0.05    PERCENT DISCREPANCY =              0.00



1
 SUMMARY VOLUMETRIC BUDGET FOR GSFLOW 
 DATE: 04 21 1981              CUMULATIVE TIME STEP:     203
 MODFLOW STRESS PERIOD      2     CURRENT TIME STEP:     203     ITERATIONS:      13

 -----------------------------------------------------------------------------------

   CUMULATIVE VOLUMES               L**3   RATES FOR THIS TIME STEP           L**3/T
   ------------------                      ------------------------

                                     IN                                         IN
                                     --                                         --
        PRECIPITATION =        1.6310D+07          PRECIPITATION =                  
           STREAMFLOW =                               STREAMFLOW =                  
     GW BOUNDARY FLOW =                         GW BOUNDARY FLOW =                  


                                    OUT                                        OUT
                                    ---                                        ---
   EVAPOTRANSPIRATION =        8228635.55     EVAPOTRANSPIRATION =         152247.12
           STREAMFLOW =        5507019.03             STREAMFLOW =          45789.41
     GW BOUNDARY FLOW =         132167.13       GW BOUNDARY FLOW =            652.63

   INFLOWS - OUTFLOWS =        2442435.70     INFLOWS - OUTFLOWS =        -198689.16
             --------                                   --------

 TOTAL STORAGE CHANGE =        2449718.39         STORAGE CHANGE =        -198712.00
       --------------                             --------------
         LAND SURFACE =        1441063.64           LAND SURFACE =        -121364.40
            SOIL ZONE =        2205069.19              SOIL ZONE =         -97328.19
     UNSATURATED ZONE =        -529447.97       UNSATURATED ZONE =          17079.22
       SATURATED ZONE =        -666966.47         SATURATED ZONE =           2901.36

 OVERALL BUDGET ERROR =          -7282.69           BUDGET ERROR =             22.84


  PERCENT DISCREPANCY =             -0.04    PERCENT DISCREPANCY =              0.01



1
 SUMMARY VOLUMETRIC BUDGET FOR GSFLOW 
 DATE: 04 28 1981              CUMULATIVE TIME STEP:     210
 MODFLOW STRESS PERIOD      2     CURRENT TIME STEP:     210     ITERATIONS:      14

 -----------------------------------------------------------------------------------

   CUMULATIVE VOLUMES               L**3   RATES FOR THIS TIME STEP           L**3/T
   ------------------                      ------------------------

                                     IN                                         IN
                                     --                                         --
        PRECIPITATION =        1.6515D+07          PRECIPITATION =                  
           STREAMFLOW =                               STREAMFLOW =                  
     GW BOUNDARY FLOW =                         GW BOUNDARY FLOW =                  


                                    OUT                                        OUT
                                    ---                                        ---
   EVAPOTRANSPIRATION =        9467124.49     EVAPOTRANSPIRATION =         200398.99
           STREAMFLOW =        5719107.10             STREAMFLOW =          24668.32
     GW BOUNDARY FLOW =         136726.62       GW BOUNDARY FLOW =            650.47

   INFLOWS - OUTFLOWS =        1192488.75     INFLOWS - OUTFLOWS =        -225717.79
             --------                                   --------

 TOTAL STORAGE CHANGE =        1199656.09         STORAGE CHANGE =        -225737.21
       --------------                             --------------
         LAND SURFACE =         691620.73           LAND SURFACE =         -83515.74
            SOIL ZONE =        1694973.87              SOIL ZONE =        -138423.75
     UNSATURATED ZONE =        -527463.52       UNSATURATED ZONE =          -4086.10
       SATURATED ZONE =        -659474.99         SATURATED ZONE =            288.38

 OVERALL BUDGET ERROR =          -7167.35           BUDGET ERROR =             19.42


  PERCENT DISCREPANCY =             -0.04    PERCENT DISCREPANCY =              0.01



1
 SUMMARY VOLUMETRIC BUDGET FOR GSFLOW 
 DATE: 05 05 1981              CUMULATIVE TIME STEP:     217
 MODFLOW STRESS PERIOD      2     CURRENT TIME STEP:     217     ITERATIONS:      13

 -----------------------------------------------------------------------------------

   CUMULATIVE VOLUMES               L**3   RATES FOR THIS TIME STEP           L**3/T
   ------------------                      ------------------------

                                     IN                                         IN
                                     --                                         --
        PRECIPITATION =        1.6515D+07          PRECIPITATION =                  
           STREAMFLOW =                               STREAMFLOW =                  
     GW BOUNDARY FLOW =                         GW BOUNDARY FLOW =                  


                                    OUT                                        OUT
                                    ---                                        ---
   EVAPOTRANSPIRATION =        1.0354D+07     EVAPOTRANSPIRATION =          52071.84
           STREAMFLOW =        5824053.15             STREAMFLOW =          10603.79
     GW BOUNDARY FLOW =         141272.96       GW BOUNDARY FLOW =            648.78

   INFLOWS - OUTFLOWS =         196111.73     INFLOWS - OUTFLOWS =         -63324.41
             --------                                   --------

 TOTAL STORAGE CHANGE =         203215.60         STORAGE CHANGE =         -63329.83
       --------------                             --------------
         LAND SURFACE =         347403.61           LAND SURFACE =         -17503.36
            SOIL ZONE =        1153507.98              SOIL ZONE =         -26297.60
     UNSATURATED ZONE =        -624850.04       UNSATURATED ZONE =         -16447.71
       SATURATED ZONE =        -672845.94         SATURATED ZONE =          -3081.16

 OVERALL BUDGET ERROR =          -7103.87           BUDGET ERROR =              5.42


  PERCENT DISCREPANCY =             -0.04    PERCENT DISCREPANCY =              0.01



1
 SUMMARY VOLUMETRIC BUDGET FOR GSFLOW 
 DATE: 05 12 1981              CUMULATIVE TIME STEP:     224
 MODFLOW STRESS PERIOD      2     CURRENT TIME STEP:     224     ITERATIONS:      15

 -----------------------------------------------------------------------------------

   CUMULATIVE VOLUMES               L**3   RATES FOR THIS TIME STEP           L**3/T
   ------------------                      ------------------------

                                     IN                                         IN
                                     --                                         --
        PRECIPITATION =        1.6515D+07          PRECIPITATION =                  
           STREAMFLOW =                               STREAMFLOW =                  
     GW BOUNDARY FLOW =                         GW BOUNDARY FLOW =                  


                                    OUT                                        OUT
                                    ---                                        ---
   EVAPOTRANSPIRATION =        1.0874D+07     EVAPOTRANSPIRATION =          91407.28
           STREAMFLOW =        5893105.08             STREAMFLOW =          10122.46
     GW BOUNDARY FLOW =         145811.38       GW BOUNDARY FLOW =            648.17

   INFLOWS - OUTFLOWS =        -397861.69     INFLOWS - OUTFLOWS =        -102177.91
             --------                                   --------

 TOTAL STORAGE CHANGE =        -390760.37         STORAGE CHANGE =        -102173.54
       --------------                             --------------
         LAND SURFACE =         198720.95           LAND SURFACE =         -25499.92
            SOIL ZONE =         845405.57              SOIL ZONE =         -57520.05
     UNSATURATED ZONE =        -732093.99       UNSATURATED ZONE =         -13709.85
       SATURATED ZONE =        -702792.90         SATURATED ZONE =          -5443.73

 OVERALL BUDGET ERROR =          -7101.31           BUDGET ERROR =             -4.36


  PERCENT DISCREPANCY =             -0.04    PERCENT DISCREPANCY =             -0.00



1
 SUMMARY VOLUMETRIC BUDGET FOR GSFLOW 
 DATE: 05 19 1981              CUMULATIVE TIME STEP:     231
 MODFLOW STRESS PERIOD      2     CURRENT TIME STEP:     231     ITERATIONS:      15

 -----------------------------------------------------------------------------------

   CUMULATIVE VOLUMES               L**3   RATES FOR THIS TIME STEP           L**3/T
   ------------------                      ------------------------

                                     IN                                         IN
                                     --                                         --
        PRECIPITATION =        1.7837D+07          PRECIPITATION =         169047.83
           STREAMFLOW =                               STREAMFLOW =                  
     GW BOUNDARY FLOW =                         GW BOUNDARY FLOW =                  


                                    OUT                                        OUT
                                    ---                                        ---
   EVAPOTRANSPIRATION =        1.1232D+07     EVAPOTRANSPIRATION =          35342.78
           STREAMFLOW =        6017637.25             STREAMFLOW =          25673.18
     GW BOUNDARY FLOW =         150350.41       GW BOUNDARY FLOW =            649.44

   INFLOWS - OUTFLOWS =         436827.36     INFLOWS - OUTFLOWS =         107382.43
             --------                                   --------

 TOTAL STORAGE CHANGE =         443929.63         STORAGE CHANGE =         107389.49
       --------------                             --------------
         LAND SURFACE =         167126.53           LAND SURFACE =           4530.43
            SOIL ZONE =        1824304.24              SOIL ZONE =         110364.75
     UNSATURATED ZONE =        -804708.17       UNSATURATED ZONE =          -1975.87
       SATURATED ZONE =        -742792.98         SATURATED ZONE =          -5529.81

 OVERALL BUDGET ERROR =          -7102.27           BUDGET ERROR =             -7.06


  PERCENT DISCREPANCY =             -0.04    PERCENT DISCREPANCY =             -0.00



1
 SUMMARY VOLUMETRIC BUDGET FOR GSFLOW 
 DATE: 05 26 1981              CUMULATIVE TIME STEP:     238
 MODFLOW STRESS PERIOD      2     CURRENT TIME STEP:     238     ITERATIONS:      12

 -----------------------------------------------------------------------------------

   CUMULATIVE VOLUMES               L**3   RATES FOR THIS TIME STEP           L**3/T
   ------------------                      ------------------------

                                     IN                                         IN
                                     --                                         --
        PRECIPITATION =        1.8252D+07          PRECIPITATION =         284301.98
           STREAMFLOW =                               STREAMFLOW =                  
     GW BOUNDARY FLOW =                         GW BOUNDARY FLOW =                  


                                    OUT                                        OUT
                                    ---                                        ---
   EVAPOTRANSPIRATION =        1.2124D+07     EVAPOTRANSPIRATION =         143847.36
           STREAMFLOW =        6124020.14             STREAMFLOW =          18213.19
     GW BOUNDARY FLOW =         154891.05       GW BOUNDARY FLOW =            648.42

   INFLOWS - OUTFLOWS =        -150934.77     INFLOWS - OUTFLOWS =         121593.01
             --------                                   --------

 TOTAL STORAGE CHANGE =        -143815.24         STORAGE CHANGE =         121594.99
       --------------                             --------------
         LAND SURFACE =          96901.93           LAND SURFACE =          -7055.52
            SOIL ZONE =        1416530.99              SOIL ZONE =         146522.07
     UNSATURATED ZONE =        -865938.96       UNSATURATED ZONE =         -10990.31
       SATURATED ZONE =        -791309.19         SATURATED ZONE =          -6881.25

 OVERALL BUDGET ERROR =          -7119.53           BUDGET ERROR =             -1.98


  PERCENT DISCREPANCY =             -0.04    PERCENT DISCREPANCY =             -0.00



1
 SUMMARY VOLUMETRIC BUDGET FOR GSFLOW 
 DATE: 06 02 1981              CUMULATIVE TIME STEP:     245
 MODFLOW STRESS PERIOD      2     CURRENT TIME STEP:     245     ITERATIONS:      14

 -----------------------------------------------------------------------------------

   CUMULATIVE VOLUMES               L**3   RATES FOR THIS TIME STEP           L**3/T
   ------------------                      ------------------------

                                     IN                                         IN
                                     --                                         --
        PRECIPITATION =        1.8318D+07          PRECIPITATION =          50867.39
           STREAMFLOW =                               STREAMFLOW =                  
     GW BOUNDARY FLOW =                         GW BOUNDARY FLOW =                  


                                    OUT                                        OUT
                                    ---                                        ---
   EVAPOTRANSPIRATION =        1.2927D+07     EVAPOTRANSPIRATION =          64990.79
           STREAMFLOW =        6190259.28             STREAMFLOW =           7479.45
     GW BOUNDARY FLOW =         159425.69       GW BOUNDARY FLOW =            647.38

   INFLOWS - OUTFLOWS =        -958082.83     INFLOWS - OUTFLOWS =         -22250.24
             --------                                   --------

 TOTAL STORAGE CHANGE =        -950949.65         STORAGE CHANGE =         -22251.10
       --------------                             --------------
         LAND SURFACE =          61824.55           LAND SURFACE =          30829.61
            SOIL ZONE =         790771.96              SOIL ZONE =         -30853.95
     UNSATURATED ZONE =        -954447.51       UNSATURATED ZONE =         -13643.99
       SATURATED ZONE =        -849098.66         SATURATED ZONE =          -8582.77

 OVERALL BUDGET ERROR =          -7133.18           BUDGET ERROR =              0.87


  PERCENT DISCREPANCY =             -0.04    PERCENT DISCREPANCY =              0.00



1
 SUMMARY VOLUMETRIC BUDGET FOR GSFLOW 
 DATE: 06 09 1981              CUMULATIVE TIME STEP:     252
 MODFLOW STRESS PERIOD      2     CURRENT TIME STEP:     252     ITERATIONS:      13

 -----------------------------------------------------------------------------------

   CUMULATIVE VOLUMES               L**3   RATES FOR THIS TIME STEP           L**3/T
   ------------------                      ------------------------

                                     IN                                         IN
                                     --                                         --
        PRECIPITATION =        1.8318D+07          PRECIPITATION =                  
           STREAMFLOW =                               STREAMFLOW =                  
     GW BOUNDARY FLOW =                         GW BOUNDARY FLOW =                  


                                    OUT                                        OUT
                                    ---                                        ---
   EVAPOTRANSPIRATION =        1.3394D+07     EVAPOTRANSPIRATION =          48545.29
           STREAMFLOW =        6236957.14             STREAMFLOW =           6324.35
     GW BOUNDARY FLOW =         163955.35       GW BOUNDARY FLOW =            646.94

   INFLOWS - OUTFLOWS =       -1477001.00     INFLOWS - OUTFLOWS =         -55516.58
             --------                                   --------

 TOTAL STORAGE CHANGE =       -1469822.01         STORAGE CHANGE =         -55508.95
       --------------                             --------------
         LAND SURFACE =           8254.44           LAND SURFACE =          -1595.45
            SOIL ZONE =         480980.63              SOIL ZONE =         -31742.24
     UNSATURATED ZONE =       -1047594.39       UNSATURATED ZONE =         -13063.32
       SATURATED ZONE =        -911462.70         SATURATED ZONE =          -9107.95

 OVERALL BUDGET ERROR =          -7178.99           BUDGET ERROR =             -7.63


  PERCENT DISCREPANCY =             -0.04    PERCENT DISCREPANCY =             -0.01



1
 SUMMARY VOLUMETRIC BUDGET FOR GSFLOW 
 DATE: 06 16 1981              CUMULATIVE TIME STEP:     259
 MODFLOW STRESS PERIOD      2     CURRENT TIME STEP:     259     ITERATIONS:      12

 -----------------------------------------------------------------------------------

   CUMULATIVE VOLUMES               L**3   RATES FOR THIS TIME STEP           L**3/T
   ------------------                      ------------------------

                                     IN                                         IN
                                     --                                         --
        PRECIPITATION =        1.8318D+07          PRECIPITATION =                  
           STREAMFLOW =                               STREAMFLOW =                  
     GW BOUNDARY FLOW =                         GW BOUNDARY FLOW =                  


                                    OUT                                        OUT
                                    ---                                        ---
   EVAPOTRANSPIRATION =        1.3579D+07     EVAPOTRANSPIRATION =          43990.79
           STREAMFLOW =        6280202.30             STREAMFLOW =           6114.81
     GW BOUNDARY FLOW =         168483.03       GW BOUNDARY FLOW =            646.73

   INFLOWS - OUTFLOWS =       -1709039.79     INFLOWS - OUTFLOWS =         -50752.33
             --------                                   --------

 TOTAL STORAGE CHANGE =       -1701823.78         STORAGE CHANGE =         -50751.98
       --------------                             --------------
         LAND SURFACE =           3426.51           LAND SURFACE =           -943.67
            SOIL ZONE =         407717.78              SOIL ZONE =         -27945.42
     UNSATURATED ZONE =       -1136671.90       UNSATURATED ZONE =         -12435.20
       SATURATED ZONE =        -976296.17         SATURATED ZONE =          -9427.69

 OVERALL BUDGET ERROR =          -7216.01           BUDGET ERROR =             -0.34


  PERCENT DISCREPANCY =             -0.04    PERCENT DISCREPANCY =             -0.00



1
 SUMMARY VOLUMETRIC BUDGET FOR GSFLOW 
 DATE: 06 23 1981              CUMULATIVE TIME STEP:     266
 MODFLOW STRESS PERIOD      2     CURRENT TIME STEP:     266     ITERATIONS:      14

 -----------------------------------------------------------------------------------

   CUMULATIVE VOLUMES               L**3   RATES FOR THIS TIME STEP           L**3/T
   ------------------                      ------------------------

                                     IN                                         IN
                                     --                                         --
        PRECIPITATION =        1.8318D+07          PRECIPITATION =                  
           STREAMFLOW =                               STREAMFLOW =                  
     GW BOUNDARY FLOW =                         GW BOUNDARY FLOW =                  


                                    OUT                                        OUT
                                    ---                                        ---
   EVAPOTRANSPIRATION =        1.3857D+07     EVAPOTRANSPIRATION =          33005.71
           STREAMFLOW =        6322171.11             STREAMFLOW =           5933.59
     GW BOUNDARY FLOW =         173009.48       GW BOUNDARY FLOW =            646.56

   INFLOWS - OUTFLOWS =       -2033834.32     INFLOWS - OUTFLOWS =         -39585.87
             --------                                   --------

 TOTAL STORAGE CHANGE =       -2026600.28         STORAGE CHANGE =         -39582.14
       --------------                             --------------
         LAND SURFACE =                             LAND SURFACE =                  
            SOIL ZONE =         238234.61              SOIL ZONE =         -18006.75
     UNSATURATED ZONE =       -1221489.61       UNSATURATED ZONE =         -11730.34
       SATURATED ZONE =       -1043345.28         SATURATED ZONE =          -9845.05

 OVERALL BUDGET ERROR =          -7234.03           BUDGET ERROR =             -3.73


  PERCENT DISCREPANCY =             -0.04    PERCENT DISCREPANCY =             -0.01



1
 SUMMARY VOLUMETRIC BUDGET FOR GSFLOW 
 DATE: 06 30 1981              CUMULATIVE TIME STEP:     273
 MODFLOW STRESS PERIOD      2     CURRENT TIME STEP:     273     ITERATIONS:       9

 -----------------------------------------------------------------------------------

   CUMULATIVE VOLUMES               L**3   RATES FOR THIS TIME STEP           L**3/T
   ------------------                      ------------------------

                                     IN                                         IN
[...]
     GW BOUNDARY FLOW =        3735620.98       GW BOUNDARY FLOW =            650.70

   INFLOWS - OUTFLOWS =       -7932434.75     INFLOWS - OUTFLOWS =         -48720.51
             --------                                   --------

 TOTAL STORAGE CHANGE =       -7825129.05         STORAGE CHANGE =         -48742.38
       --------------                             --------------
         LAND SURFACE =          84521.90           LAND SURFACE =          -4963.73
            SOIL ZONE =         221358.01              SOIL ZONE =         -22483.92
     UNSATURATED ZONE =        5304226.41       UNSATURATED ZONE =         -27510.23
       SATURATED ZONE =       -1.3435D+07         SATURATED ZONE =           6215.49

 OVERALL BUDGET ERROR =        -107305.70           BUDGET ERROR =             21.87


  PERCENT DISCREPANCY =             -0.02    PERCENT DISCREPANCY =              0.04



1
 SUMMARY VOLUMETRIC BUDGET FOR GSFLOW 
 DATE: 07 30 1996              CUMULATIVE TIME STEP:    5782
 MODFLOW STRESS PERIOD      2     CURRENT TIME STEP:    5782     ITERATIONS:      14

 -----------------------------------------------------------------------------------

   CUMULATIVE VOLUMES               L**3   RATES FOR THIS TIME STEP           L**3/T
   ------------------                      ------------------------

                                     IN                                         IN
                                     --                                         --
        PRECIPITATION =        4.6511D+08          PRECIPITATION =                  
           STREAMFLOW =                               STREAMFLOW =                  
     GW BOUNDARY FLOW =                         GW BOUNDARY FLOW =                  


                                    OUT                                        OUT
                                    ---                                        ---
   EVAPOTRANSPIRATION =        2.8895D+08     EVAPOTRANSPIRATION =          25374.18
           STREAMFLOW =        1.8060D+08             STREAMFLOW =           6739.52
     GW BOUNDARY FLOW =        3740174.30       GW BOUNDARY FLOW =            650.28

   INFLOWS - OUTFLOWS =       -8188857.50     INFLOWS - OUTFLOWS =         -32763.99
             --------                                   --------

 TOTAL STORAGE CHANGE =       -8081627.59         STORAGE CHANGE =         -32779.64
       --------------                             --------------
         LAND SURFACE =          55427.09           LAND SURFACE =          -3488.58
            SOIL ZONE =         141566.67              SOIL ZONE =          -8333.12
     UNSATURATED ZONE =        5116705.82       UNSATURATED ZONE =         -26308.21
       SATURATED ZONE =       -1.3395D+07         SATURATED ZONE =           5350.26

 OVERALL BUDGET ERROR =        -107229.90           BUDGET ERROR =             15.65


  PERCENT DISCREPANCY =             -0.02    PERCENT DISCREPANCY =              0.05



1
 SUMMARY VOLUMETRIC BUDGET FOR GSFLOW 
 DATE: 08 06 1996              CUMULATIVE TIME STEP:    5789
 MODFLOW STRESS PERIOD      2     CURRENT TIME STEP:    5789     ITERATIONS:      13

 -----------------------------------------------------------------------------------

   CUMULATIVE VOLUMES               L**3   RATES FOR THIS TIME STEP           L**3/T
   ------------------                      ------------------------

                                     IN                                         IN
                                     --                                         --
        PRECIPITATION =        4.6511D+08          PRECIPITATION =                  
           STREAMFLOW =                               STREAMFLOW =                  
     GW BOUNDARY FLOW =                         GW BOUNDARY FLOW =                  


                                    OUT                                        OUT
                                    ---                                        ---
   EVAPOTRANSPIRATION =        2.8909D+08     EVAPOTRANSPIRATION =          18604.27
           STREAMFLOW =        1.8065D+08             STREAMFLOW =           6538.78
     GW BOUNDARY FLOW =        3744724.50       GW BOUNDARY FLOW =            649.91

   INFLOWS - OUTFLOWS =       -8375717.08     INFLOWS - OUTFLOWS =         -25792.96
             --------                                   --------

 TOTAL STORAGE CHANGE =       -8268629.19         STORAGE CHANGE =         -25813.47
       --------------                             --------------
         LAND SURFACE =          37080.11           LAND SURFACE =          -2254.04
            SOIL ZONE =         118459.53              SOIL ZONE =          -2891.24
     UNSATURATED ZONE =        4935091.51       UNSATURATED ZONE =         -25444.94
       SATURATED ZONE =       -1.3359D+07         SATURATED ZONE =           4776.75

 OVERALL BUDGET ERROR =        -107087.90           BUDGET ERROR =             20.51


  PERCENT DISCREPANCY =             -0.02    PERCENT DISCREPANCY =              0.08



1
 SUMMARY VOLUMETRIC BUDGET FOR GSFLOW 
 DATE: 08 13 1996              CUMULATIVE TIME STEP:    5796
 MODFLOW STRESS PERIOD      2     CURRENT TIME STEP:    5796     ITERATIONS:      14

 -----------------------------------------------------------------------------------

   CUMULATIVE VOLUMES               L**3   RATES FOR THIS TIME STEP           L**3/T
   ------------------                      ------------------------

                                     IN                                         IN
                                     --                                         --
        PRECIPITATION =        4.6531D+08          PRECIPITATION =          54456.73
           STREAMFLOW =                               STREAMFLOW =                  
     GW BOUNDARY FLOW =                         GW BOUNDARY FLOW =                  


                                    OUT                                        OUT
                                    ---                                        ---
   EVAPOTRANSPIRATION =        2.8926D+08     EVAPOTRANSPIRATION =          33539.39
           STREAMFLOW =        1.8070D+08             STREAMFLOW =           7738.30
     GW BOUNDARY FLOW =        3749273.78       GW BOUNDARY FLOW =            649.95

   INFLOWS - OUTFLOWS =       -8399339.29     INFLOWS - OUTFLOWS =          12529.09
             --------                                   --------

 TOTAL STORAGE CHANGE =       -8292344.95         STORAGE CHANGE =          12516.75
       --------------                             --------------
         LAND SURFACE =          53177.14           LAND SURFACE =          -2312.81
            SOIL ZONE =         221805.56              SOIL ZONE =          35090.80
     UNSATURATED ZONE =        4761711.16       UNSATURATED ZONE =         -24150.26
       SATURATED ZONE =       -1.3329D+07         SATURATED ZONE =           3889.03

 OVERALL BUDGET ERROR =        -106994.34           BUDGET ERROR =             12.35


  PERCENT DISCREPANCY =             -0.02    PERCENT DISCREPANCY =              0.02



1
 SUMMARY VOLUMETRIC BUDGET FOR GSFLOW 
 DATE: 08 20 1996              CUMULATIVE TIME STEP:    5803
 MODFLOW STRESS PERIOD      2     CURRENT TIME STEP:    5803     ITERATIONS:      13

 -----------------------------------------------------------------------------------

   CUMULATIVE VOLUMES               L**3   RATES FOR THIS TIME STEP           L**3/T
   ------------------                      ------------------------

                                     IN                                         IN
                                     --                                         --
        PRECIPITATION =        4.6531D+08          PRECIPITATION =                  
           STREAMFLOW =                               STREAMFLOW =                  
     GW BOUNDARY FLOW =                         GW BOUNDARY FLOW =                  


                                    OUT                                        OUT
                                    ---                                        ---
   EVAPOTRANSPIRATION =        2.8946D+08     EVAPOTRANSPIRATION =          16671.70
           STREAMFLOW =        1.8075D+08             STREAMFLOW =           6347.14
     GW BOUNDARY FLOW =        3753822.00       GW BOUNDARY FLOW =            649.60

   INFLOWS - OUTFLOWS =       -8647391.26     INFLOWS - OUTFLOWS =         -23668.43
             --------                                   --------

 TOTAL STORAGE CHANGE =       -8540532.34         STORAGE CHANGE =         -23692.67
       --------------                             --------------
         LAND SURFACE =           6933.74           LAND SURFACE =          -1297.55
            SOIL ZONE =         161641.06              SOIL ZONE =          -2240.68
     UNSATURATED ZONE =        4597064.55       UNSATURATED ZONE =         -23080.06
       SATURATED ZONE =       -1.3306D+07         SATURATED ZONE =           2925.62

 OVERALL BUDGET ERROR =        -106858.92           BUDGET ERROR =             24.25


  PERCENT DISCREPANCY =             -0.02    PERCENT DISCREPANCY =              0.10



1
 SUMMARY VOLUMETRIC BUDGET FOR GSFLOW 
 DATE: 08 27 1996              CUMULATIVE TIME STEP:    5810
 MODFLOW STRESS PERIOD      2     CURRENT TIME STEP:    5810     ITERATIONS:      13

 -----------------------------------------------------------------------------------

   CUMULATIVE VOLUMES               L**3   RATES FOR THIS TIME STEP           L**3/T
   ------------------                      ------------------------

                                     IN                                         IN
                                     --                                         --
        PRECIPITATION =        4.6531D+08          PRECIPITATION =                  
           STREAMFLOW =                               STREAMFLOW =                  
     GW BOUNDARY FLOW =                         GW BOUNDARY FLOW =                  


                                    OUT                                        OUT
                                    ---                                        ---
   EVAPOTRANSPIRATION =        2.8960D+08     EVAPOTRANSPIRATION =          15151.98
           STREAMFLOW =        1.8079D+08             STREAMFLOW =           6188.43
     GW BOUNDARY FLOW =        3758367.85       GW BOUNDARY FLOW =            649.26

   INFLOWS - OUTFLOWS =       -8831440.17     INFLOWS - OUTFLOWS =         -21989.67
             --------                                   --------

 TOTAL STORAGE CHANGE =       -8724677.48         STORAGE CHANGE =         -21999.71
       --------------                             --------------
         LAND SURFACE =           1244.67           LAND SURFACE =           -272.68
            SOIL ZONE =         123220.81              SOIL ZONE =          -1826.89
     UNSATURATED ZONE =        4440673.45       UNSATURATED ZONE =         -21992.84
       SATURATED ZONE =       -1.3290D+07         SATURATED ZONE =           2092.70

 OVERALL BUDGET ERROR =        -106762.69           BUDGET ERROR =             10.03


  PERCENT DISCREPANCY =             -0.02    PERCENT DISCREPANCY =              0.05



1
 SUMMARY VOLUMETRIC BUDGET FOR GSFLOW 
 DATE: 09 03 1996              CUMULATIVE TIME STEP:    5817
 MODFLOW STRESS PERIOD      2     CURRENT TIME STEP:    5817     ITERATIONS:      12

 -----------------------------------------------------------------------------------

   CUMULATIVE VOLUMES               L**3   RATES FOR THIS TIME STEP           L**3/T
   ------------------                      ------------------------

                                     IN                                         IN
                                     --                                         --
        PRECIPITATION =        4.6531D+08          PRECIPITATION =                  
           STREAMFLOW =                               STREAMFLOW =                  
     GW BOUNDARY FLOW =                         GW BOUNDARY FLOW =                  


                                    OUT                                        OUT
                                    ---                                        ---
   EVAPOTRANSPIRATION =        2.8970D+08     EVAPOTRANSPIRATION =          12343.30
           STREAMFLOW =        1.8083D+08             STREAMFLOW =           6088.72
     GW BOUNDARY FLOW =        3762911.19       GW BOUNDARY FLOW =            648.88

   INFLOWS - OUTFLOWS =       -8980483.32     INFLOWS - OUTFLOWS =         -19080.91
             --------                                   --------

 TOTAL STORAGE CHANGE =       -8873883.13         STORAGE CHANGE =         -19101.40
       --------------                             --------------
         LAND SURFACE =            584.39           LAND SURFACE =            -75.06
            SOIL ZONE =         113165.13              SOIL ZONE =            660.38
     UNSATURATED ZONE =        4290541.89       UNSATURATED ZONE =         -21143.99
       SATURATED ZONE =       -1.3278D+07         SATURATED ZONE =           1457.27

 OVERALL BUDGET ERROR =        -106600.19           BUDGET ERROR =             20.49


  PERCENT DISCREPANCY =             -0.02    PERCENT DISCREPANCY =              0.11



1
 SUMMARY VOLUMETRIC BUDGET FOR GSFLOW 
 DATE: 09 10 1996              CUMULATIVE TIME STEP:    5824
 MODFLOW STRESS PERIOD      2     CURRENT TIME STEP:    5824     ITERATIONS:      12

 -----------------------------------------------------------------------------------

   CUMULATIVE VOLUMES               L**3   RATES FOR THIS TIME STEP           L**3/T
   ------------------                      ------------------------

                                     IN                                         IN
                                     --                                         --
        PRECIPITATION =        4.6531D+08          PRECIPITATION =                  
           STREAMFLOW =                               STREAMFLOW =                  
     GW BOUNDARY FLOW =                         GW BOUNDARY FLOW =                  


                                    OUT                                        OUT
                                    ---                                        ---
   EVAPOTRANSPIRATION =        2.8978D+08     EVAPOTRANSPIRATION =          13669.44
           STREAMFLOW =        1.8087D+08             STREAMFLOW =           5997.34
     GW BOUNDARY FLOW =        3767451.92       GW BOUNDARY FLOW =            648.51

   INFLOWS - OUTFLOWS =       -9109997.36     INFLOWS - OUTFLOWS =         -20315.29
             --------                                   --------

 TOTAL STORAGE CHANGE =       -9003575.77         STORAGE CHANGE =         -20338.65
       --------------                             --------------
         LAND SURFACE =            141.93           LAND SURFACE =            -69.29
            SOIL ZONE =         120897.02              SOIL ZONE =           -794.03
     UNSATURATED ZONE =        4142976.61       UNSATURATED ZONE =         -20902.18
       SATURATED ZONE =       -1.3268D+07         SATURATED ZONE =           1426.85

 OVERALL BUDGET ERROR =        -106421.58           BUDGET ERROR =             23.36


  PERCENT DISCREPANCY =             -0.02    PERCENT DISCREPANCY =              0.11



1
 SUMMARY VOLUMETRIC BUDGET FOR GSFLOW 
 DATE: 09 17 1996              CUMULATIVE TIME STEP:    5831
 MODFLOW STRESS PERIOD      2     CURRENT TIME STEP:    5831     ITERATIONS:      12

 -----------------------------------------------------------------------------------

   CUMULATIVE VOLUMES               L**3   RATES FOR THIS TIME STEP           L**3/T
   ------------------                      ------------------------

                                     IN                                         IN
                                     --                                         --
        PRECIPITATION =        4.6637D+08          PRECIPITATION =                  
           STREAMFLOW =                               STREAMFLOW =                  
     GW BOUNDARY FLOW =                         GW BOUNDARY FLOW =                  


                                    OUT                                        OUT
                                    ---                                        ---
   EVAPOTRANSPIRATION =        2.8997D+08     EVAPOTRANSPIRATION =          63860.91
           STREAMFLOW =        1.8094D+08             STREAMFLOW =          10044.08
     GW BOUNDARY FLOW =        3771992.01       GW BOUNDARY FLOW =            648.92

   INFLOWS - OUTFLOWS =       -8311670.89     INFLOWS - OUTFLOWS =         -74553.92
             --------                                   --------

 TOTAL STORAGE CHANGE =       -8205442.70         STORAGE CHANGE =         -74575.09
       --------------                             --------------
         LAND SURFACE =           2829.02           LAND SURFACE =         -35615.32
            SOIL ZONE =        1049665.38              SOIL ZONE =         -19687.33
     UNSATURATED ZONE =        4000780.90       UNSATURATED ZONE =         -19915.18
       SATURATED ZONE =       -1.3259D+07         SATURATED ZONE =            642.74

 OVERALL BUDGET ERROR =        -106228.19           BUDGET ERROR =             21.18


  PERCENT DISCREPANCY =             -0.02    PERCENT DISCREPANCY =              0.03



1
 SUMMARY VOLUMETRIC BUDGET FOR GSFLOW 
 DATE: 09 24 1996              CUMULATIVE TIME STEP:    5838
 MODFLOW STRESS PERIOD      2     CURRENT TIME STEP:    5838     ITERATIONS:      12

 -----------------------------------------------------------------------------------

   CUMULATIVE VOLUMES               L**3   RATES FOR THIS TIME STEP           L**3/T
   ------------------                      ------------------------

                                     IN                                         IN
                                     --                                         --
        PRECIPITATION =        4.6637D+08          PRECIPITATION =                  
           STREAMFLOW =                               STREAMFLOW =                  
     GW BOUNDARY FLOW =                         GW BOUNDARY FLOW =                  


                                    OUT                                        OUT
                                    ---                                        ---
   EVAPOTRANSPIRATION =        2.9046D+08     EVAPOTRANSPIRATION =          56976.10
           STREAMFLOW =        1.8099D+08             STREAMFLOW =           6389.95
     GW BOUNDARY FLOW =        3776530.51       GW BOUNDARY FLOW =            648.02

   INFLOWS - OUTFLOWS =       -8862544.05     INFLOWS - OUTFLOWS =         -64014.07
             --------                                   --------

 TOTAL STORAGE CHANGE =       -8756523.96         STORAGE CHANGE =         -64030.14
       --------------                             --------------
         LAND SURFACE =                             LAND SURFACE =                  
            SOIL ZONE =         635747.45              SOIL ZONE =         -44938.43
     UNSATURATED ZONE =        3865027.46       UNSATURATED ZONE =         -19220.08
       SATURATED ZONE =       -1.3257D+07         SATURATED ZONE =            128.36

 OVERALL BUDGET ERROR =        -106020.09           BUDGET ERROR =             16.08


  PERCENT DISCREPANCY =             -0.02    PERCENT DISCREPANCY =              0.03



 Number of time steps:   5844;  Number of non-convergence:   0
 MF iterations:         63729;  SZ iterations:           63691
 Average MF iterations: 10.91;  Average SZ iterations:   10.90
 Maximum MF iterations:    32;  Maximum SZ iterations:      25

mxsziter reached: 13

