1
 SUMMARY VOLUMETRIC BUDGET FOR GSFLOW 
 DATE: 10 07 1980              CUMULATIVE TIME STEP:       7
 MODFLOW STRESS PERIOD      2     CURRENT TIME STEP:       7     ITERATIONS:       6

 -----------------------------------------------------------------------------------

   CUMULATIVE VOLUMES               L**3   RATES FOR THIS TIME STEP           L**3/T
   ------------------                      ------------------------

                                     IN                                         IN
                                     --                                         --
        PRECIPITATION =                            PRECIPITATION =                  
           STREAMFLOW =                               STREAMFLOW =                  
     GW BOUNDARY FLOW =                         GW BOUNDARY FLOW =                  


                                    OUT                                        OUT
                                    ---                                        ---
   EVAPOTRANSPIRATION =          57671.86     EVAPOTRANSPIRATION =           9507.30
           STREAMFLOW =          42957.50             STREAMFLOW =           6065.76
     GW BOUNDARY FLOW =           4541.44       GW BOUNDARY FLOW =            648.70

   INFLOWS - OUTFLOWS =        -105170.80     INFLOWS - OUTFLOWS =         -16221.76
             --------                                   --------

 TOTAL STORAGE CHANGE =        -104775.19         STORAGE CHANGE =         -16161.17
       --------------                             --------------
         LAND SURFACE =                             LAND SURFACE =                  
            SOIL ZONE =          52844.12              SOIL ZONE =           6189.01
     UNSATURATED ZONE =        -144779.04       UNSATURATED ZONE =         -20361.32
       SATURATED ZONE =         -12840.27         SATURATED ZONE =          -1988.86

 OVERALL BUDGET ERROR =           -395.61           BUDGET ERROR =            -60.59


  PERCENT DISCREPANCY =             -0.38    PERCENT DISCREPANCY =             -0.37



1
 SUMMARY VOLUMETRIC BUDGET FOR GSFLOW 
 DATE: 10 14 1980              CUMULATIVE TIME STEP:      14
 MODFLOW STRESS PERIOD      2     CURRENT TIME STEP:      14     ITERATIONS:       6

 -----------------------------------------------------------------------------------

   CUMULATIVE VOLUMES               L**3   RATES FOR THIS TIME STEP           L**3/T
   ------------------                      ------------------------

                                     IN                                         IN
                                     --                                         --
        PRECIPITATION =         650780.39          PRECIPITATION =         164754.68
           STREAMFLOW =                               STREAMFLOW =                  
     GW BOUNDARY FLOW =                         GW BOUNDARY FLOW =                  


                                    OUT                                        OUT
                                    ---                                        ---
   EVAPOTRANSPIRATION =         152398.43     EVAPOTRANSPIRATION =          10627.99
           STREAMFLOW =          94383.94             STREAMFLOW =           7681.18
     GW BOUNDARY FLOW =           9082.95       GW BOUNDARY FLOW =            648.93

   INFLOWS - OUTFLOWS =         394915.07     INFLOWS - OUTFLOWS =         145796.57
             --------                                   --------

 TOTAL STORAGE CHANGE =         395752.95         STORAGE CHANGE =         145858.68
       --------------                             --------------
         LAND SURFACE =         183752.11           LAND SURFACE =         130549.80
            SOIL ZONE =         524075.37              SOIL ZONE =          37341.20
     UNSATURATED ZONE =        -284495.73       UNSATURATED ZONE =         -19624.54
       SATURATED ZONE =         -27578.80         SATURATED ZONE =          -2407.79

 OVERALL BUDGET ERROR =           -837.87           BUDGET ERROR =            -62.11


  PERCENT DISCREPANCY =             -0.13    PERCENT DISCREPANCY =             -0.04



1
 SUMMARY VOLUMETRIC BUDGET FOR GSFLOW 
 DATE: 10 21 1980              CUMULATIVE TIME STEP:      21
 MODFLOW STRESS PERIOD      2     CURRENT TIME STEP:      21     ITERATIONS:       6

 -----------------------------------------------------------------------------------

   CUMULATIVE VOLUMES               L**3   RATES FOR THIS TIME STEP           L**3/T
   ------------------                      ------------------------

                                     IN                                         IN
                                     --                                         --
        PRECIPITATION =         733156.23          PRECIPITATION =                  
           STREAMFLOW =                               STREAMFLOW =                  
     GW BOUNDARY FLOW =                         GW BOUNDARY FLOW =                  


                                    OUT                                        OUT
                                    ---                                        ---
   EVAPOTRANSPIRATION =         404776.94     EVAPOTRANSPIRATION =          37744.84
           STREAMFLOW =         145026.51             STREAMFLOW =           6765.63
     GW BOUNDARY FLOW =          13624.64       GW BOUNDARY FLOW =            648.72

   INFLOWS - OUTFLOWS =         169728.14     INFLOWS - OUTFLOWS =         -45159.19
             --------                                   --------

 TOTAL STORAGE CHANGE =         171018.74         STORAGE CHANGE =         -45090.00
       --------------                             --------------
         LAND SURFACE =                             LAND SURFACE =                  
            SOIL ZONE =         636317.93              SOIL ZONE =         -23229.62
     UNSATURATED ZONE =        -418704.49       UNSATURATED ZONE =         -18825.62
       SATURATED ZONE =         -46594.70         SATURATED ZONE =          -3034.76

 OVERALL BUDGET ERROR =          -1290.60           BUDGET ERROR =            -69.20


  PERCENT DISCREPANCY =             -0.18    PERCENT DISCREPANCY =             -0.15



1
 SUMMARY VOLUMETRIC BUDGET FOR GSFLOW 
 DATE: 10 28 1980              CUMULATIVE TIME STEP:      28
 MODFLOW STRESS PERIOD      2     CURRENT TIME STEP:      28     ITERATIONS:       6

 -----------------------------------------------------------------------------------

   CUMULATIVE VOLUMES               L**3   RATES FOR THIS TIME STEP           L**3/T
   ------------------                      ------------------------

                                     IN                                         IN
                                     --                                         --
        PRECIPITATION =        1070899.96          PRECIPITATION =                  
           STREAMFLOW =                               STREAMFLOW =                  
     GW BOUNDARY FLOW =                         GW BOUNDARY FLOW =                  


                                    OUT                                        OUT
                                    ---                                        ---
   EVAPOTRANSPIRATION =         585727.16     EVAPOTRANSPIRATION =          24794.04
           STREAMFLOW =         197753.90             STREAMFLOW =           7617.23
     GW BOUNDARY FLOW =          18165.67       GW BOUNDARY FLOW =            648.76

   INFLOWS - OUTFLOWS =         269253.24     INFLOWS - OUTFLOWS =         -33060.02
             --------                                   --------

 TOTAL STORAGE CHANGE =         271059.88         STORAGE CHANGE =         -32983.25
       --------------                             --------------
         LAND SURFACE =          20573.21           LAND SURFACE =         -29874.96
            SOIL ZONE =         867283.45              SOIL ZONE =          18441.34
     UNSATURATED ZONE =        -547457.80       UNSATURATED ZONE =         -18034.77
       SATURATED ZONE =         -69338.99         SATURATED ZONE =          -3514.86

 OVERALL BUDGET ERROR =          -1806.64           BUDGET ERROR =            -76.77


  PERCENT DISCREPANCY =             -0.17    PERCENT DISCREPANCY =             -0.23



1
 SUMMARY VOLUMETRIC BUDGET FOR GSFLOW 
 DATE: 11 04 1980              CUMULATIVE TIME STEP:      35
 MODFLOW STRESS PERIOD      2     CURRENT TIME STEP:      35     ITERATIONS:       6

 -----------------------------------------------------------------------------------

   CUMULATIVE VOLUMES               L**3   RATES FOR THIS TIME STEP           L**3/T
   ------------------                      ------------------------

                                     IN                                         IN
                                     --                                         --
        PRECIPITATION =        1070899.96          PRECIPITATION =                  
           STREAMFLOW =                               STREAMFLOW =                  
     GW BOUNDARY FLOW =                         GW BOUNDARY FLOW =                  


                                    OUT                                        OUT
                                    ---                                        ---
   EVAPOTRANSPIRATION =         883538.46     EVAPOTRANSPIRATION =          36462.69
           STREAMFLOW =         247977.75             STREAMFLOW =           6777.27
     GW BOUNDARY FLOW =          22706.30       GW BOUNDARY FLOW =            648.60

   INFLOWS - OUTFLOWS =         -83322.54     INFLOWS - OUTFLOWS =         -43888.55
             --------                                   --------

 TOTAL STORAGE CHANGE =         -80955.10         STORAGE CHANGE =         -43806.71
       --------------                             --------------
         LAND SURFACE =                             LAND SURFACE =                  
            SOIL ZONE =         686689.29              SOIL ZONE =         -22284.57
     UNSATURATED ZONE =        -671017.66       UNSATURATED ZONE =         -17371.06
       SATURATED ZONE =         -96626.74         SATURATED ZONE =          -4151.08

 OVERALL BUDGET ERROR =          -2367.44           BUDGET ERROR =            -81.84


  PERCENT DISCREPANCY =             -0.21    PERCENT DISCREPANCY =             -0.19



1
 SUMMARY VOLUMETRIC BUDGET FOR GSFLOW 
 DATE: 11 11 1980              CUMULATIVE TIME STEP:      42
 MODFLOW STRESS PERIOD      2     CURRENT TIME STEP:      42     ITERATIONS:       7

 -----------------------------------------------------------------------------------

   CUMULATIVE VOLUMES               L**3   RATES FOR THIS TIME STEP           L**3/T
   ------------------                      ------------------------

                                     IN                                         IN
                                     --                                         --
        PRECIPITATION =        1573759.34          PRECIPITATION =         255182.10
           STREAMFLOW =                               STREAMFLOW =                  
     GW BOUNDARY FLOW =                         GW BOUNDARY FLOW =                  


                                    OUT                                        OUT
                                    ---                                        ---
   EVAPOTRANSPIRATION =        1099972.09     EVAPOTRANSPIRATION =          14580.68
           STREAMFLOW =         302420.79             STREAMFLOW =          10321.21
     GW BOUNDARY FLOW =          27246.80       GW BOUNDARY FLOW =            648.80

   INFLOWS - OUTFLOWS =         144119.66     INFLOWS - OUTFLOWS =         229631.41
             --------                                   --------

 TOTAL STORAGE CHANGE =         146991.20         STORAGE CHANGE =         229688.54
       --------------                             --------------
         LAND SURFACE =          76836.74           LAND SURFACE =          76836.74
            SOIL ZONE =         986584.27              SOIL ZONE =         173629.03
     UNSATURATED ZONE =        -789651.27       UNSATURATED ZONE =         -16594.06
       SATURATED ZONE =        -126778.54         SATURATED ZONE =          -4183.18

 OVERALL BUDGET ERROR =          -2871.54           BUDGET ERROR =            -57.13


  PERCENT DISCREPANCY =             -0.18    PERCENT DISCREPANCY =             -0.02



1
 SUMMARY VOLUMETRIC BUDGET FOR GSFLOW 
 DATE: 11 18 1980              CUMULATIVE TIME STEP:      49
 MODFLOW STRESS PERIOD      2     CURRENT TIME STEP:      49     ITERATIONS:       6

 -----------------------------------------------------------------------------------

   CUMULATIVE VOLUMES               L**3   RATES FOR THIS TIME STEP           L**3/T
   ------------------                      ------------------------

                                     IN                                         IN
                                     --                                         --
        PRECIPITATION =        1573759.34          PRECIPITATION =                  
           STREAMFLOW =                               STREAMFLOW =                  
     GW BOUNDARY FLOW =                         GW BOUNDARY FLOW =                  


                                    OUT                                        OUT
                                    ---                                        ---
   EVAPOTRANSPIRATION =        1195962.54     EVAPOTRANSPIRATION =          22094.99
           STREAMFLOW =         362145.04             STREAMFLOW =           8938.45
     GW BOUNDARY FLOW =          31788.27       GW BOUNDARY FLOW =            648.80

   INFLOWS - OUTFLOWS =         -16136.51     INFLOWS - OUTFLOWS =         -31682.25
             --------                                   --------

 TOTAL STORAGE CHANGE =         -12651.26         STORAGE CHANGE =         -31593.21
       --------------                             --------------
         LAND SURFACE =           5398.38           LAND SURFACE =          -7586.22
            SOIL ZONE =        1045489.02              SOIL ZONE =          -3146.12
     UNSATURATED ZONE =        -903682.66       UNSATURATED ZONE =         -16023.71
       SATURATED ZONE =        -159855.99         SATURATED ZONE =          -4837.16

 OVERALL BUDGET ERROR =          -3485.25           BUDGET ERROR =            -89.04


  PERCENT DISCREPANCY =             -0.22    PERCENT DISCREPANCY =             -0.28



1
 SUMMARY VOLUMETRIC BUDGET FOR GSFLOW 
 DATE: 11 25 1980              CUMULATIVE TIME STEP:      56
 MODFLOW STRESS PERIOD      2     CURRENT TIME STEP:      56     ITERATIONS:       7

 -----------------------------------------------------------------------------------

   CUMULATIVE VOLUMES               L**3   RATES FOR THIS TIME STEP           L**3/T
   ------------------                      ------------------------

                                     IN                                         IN
                                     --                                         --
        PRECIPITATION =        1648813.76          PRECIPITATION =                  
           STREAMFLOW =                               STREAMFLOW =                  
     GW BOUNDARY FLOW =                         GW BOUNDARY FLOW =                  


                                    OUT                                        OUT
                                    ---                                        ---
   EVAPOTRANSPIRATION =        1279700.95     EVAPOTRANSPIRATION =           9312.58
           STREAMFLOW =         426003.77             STREAMFLOW =           9347.47
     GW BOUNDARY FLOW =          36330.10       GW BOUNDARY FLOW =            648.86

   INFLOWS - OUTFLOWS =         -93221.07     INFLOWS - OUTFLOWS =         -19308.90
             --------                                   --------

 TOTAL STORAGE CHANGE =         -89118.96         STORAGE CHANGE =         -19242.32
       --------------                             --------------
         LAND SURFACE =          53187.47           LAND SURFACE =          -9260.11
            SOIL ZONE =        1067207.07              SOIL ZONE =          10833.18
     UNSATURATED ZONE =       -1013395.17       UNSATURATED ZONE =         -15405.99
       SATURATED ZONE =        -196118.32         SATURATED ZONE =          -5409.40

 OVERALL BUDGET ERROR =          -4102.11           BUDGET ERROR =            -66.59


  PERCENT DISCREPANCY =             -0.24    PERCENT DISCREPANCY =             -0.35



1
 SUMMARY VOLUMETRIC BUDGET FOR GSFLOW 
 DATE: 12 02 1980              CUMULATIVE TIME STEP:      63
 MODFLOW STRESS PERIOD      2     CURRENT TIME STEP:      63     ITERATIONS:       9

 -----------------------------------------------------------------------------------

   CUMULATIVE VOLUMES               L**3   RATES FOR THIS TIME STEP           L**3/T
   ------------------                      ------------------------

                                     IN                                         IN
                                     --                                         --
        PRECIPITATION =        2076620.74          PRECIPITATION =                  
           STREAMFLOW =                               STREAMFLOW =                  
     GW BOUNDARY FLOW =                         GW BOUNDARY FLOW =                  


                                    OUT                                        OUT
                                    ---                                        ---
   EVAPOTRANSPIRATION =        1486200.54     EVAPOTRANSPIRATION =          37392.37
           STREAMFLOW =         504794.29             STREAMFLOW =          14281.75
     GW BOUNDARY FLOW =          40873.28       GW BOUNDARY FLOW =            649.32

   INFLOWS - OUTFLOWS =          44752.62     INFLOWS - OUTFLOWS =         -52323.43
             --------                                   --------

 TOTAL STORAGE CHANGE =          49398.25         STORAGE CHANGE =         -52285.00
       --------------                             --------------
         LAND SURFACE =         139443.43           LAND SURFACE =         -82002.01
            SOIL ZONE =        1258277.04              SOIL ZONE =          47402.57
     UNSATURATED ZONE =       -1115576.61       UNSATURATED ZONE =         -13023.99
       SATURATED ZONE =        -232745.60         SATURATED ZONE =          -4661.57

 OVERALL BUDGET ERROR =          -4645.63           BUDGET ERROR =            -38.43


  PERCENT DISCREPANCY =             -0.22    PERCENT DISCREPANCY =             -0.07



1
 SUMMARY VOLUMETRIC BUDGET FOR GSFLOW 
 DATE: 12 09 1980              CUMULATIVE TIME STEP:      70
 MODFLOW STRESS PERIOD      2     CURRENT TIME STEP:      70     ITERATIONS:       7

 -----------------------------------------------------------------------------------

   CUMULATIVE VOLUMES               L**3   RATES FOR THIS TIME STEP           L**3/T
   ------------------                      ------------------------

                                     IN                                         IN
                                     --                                         --
        PRECIPITATION =        4284363.13          PRECIPITATION =                  
           STREAMFLOW =                               STREAMFLOW =                  
     GW BOUNDARY FLOW =                         GW BOUNDARY FLOW =                  


                                    OUT                                        OUT
                                    ---                                        ---
   EVAPOTRANSPIRATION =        1512756.03     EVAPOTRANSPIRATION =           4180.71
           STREAMFLOW =         598581.29             STREAMFLOW =          13769.89
     GW BOUNDARY FLOW =          45419.30       GW BOUNDARY FLOW =            649.53

   INFLOWS - OUTFLOWS =        2127606.50     INFLOWS - OUTFLOWS =         -18600.13
             --------                                   --------

 TOTAL STORAGE CHANGE =        2132706.28         STORAGE CHANGE =         -18533.57
       --------------                             --------------
         LAND SURFACE =        2319000.21           LAND SURFACE =          -4180.71
            SOIL ZONE =        1299611.04              SOIL ZONE =           5782.81
     UNSATURATED ZONE =       -1214217.77       UNSATURATED ZONE =         -14242.28
       SATURATED ZONE =        -271687.20         SATURATED ZONE =          -5893.39

 OVERALL BUDGET ERROR =          -5099.78           BUDGET ERROR =            -66.56


  PERCENT DISCREPANCY =             -0.12    PERCENT DISCREPANCY =             -0.36



1
 SUMMARY VOLUMETRIC BUDGET FOR GSFLOW 
 DATE: 12 16 1980              CUMULATIVE TIME STEP:      77
 MODFLOW STRESS PERIOD      2     CURRENT TIME STEP:      77     ITERATIONS:       7

 -----------------------------------------------------------------------------------

   CUMULATIVE VOLUMES               L**3   RATES FOR THIS TIME STEP           L**3/T
   ------------------                      ------------------------

                                     IN                                         IN
                                     --                                         --
        PRECIPITATION =        4284363.13          PRECIPITATION =                  
           STREAMFLOW =                               STREAMFLOW =                  
     GW BOUNDARY FLOW =                         GW BOUNDARY FLOW =                  


                                    OUT                                        OUT
                                    ---                                        ---
   EVAPOTRANSPIRATION =        1664520.24     EVAPOTRANSPIRATION =          35694.90
           STREAMFLOW =         714883.48             STREAMFLOW =          24604.04
     GW BOUNDARY FLOW =          49967.28       GW BOUNDARY FLOW =            650.18

   INFLOWS - OUTFLOWS =        1854992.12     INFLOWS - OUTFLOWS =         -60949.12
             --------                                   --------

 TOTAL STORAGE CHANGE =        1860525.79         STORAGE CHANGE =         -60891.40
       --------------                             --------------
         LAND SURFACE =        1981773.89           LAND SURFACE =        -138704.98
            SOIL ZONE =        1494300.56              SOIL ZONE =          91209.56
     UNSATURATED ZONE =       -1303931.90       UNSATURATED ZONE =          -9005.56
       SATURATED ZONE =        -311616.76         SATURATED ZONE =          -4390.42

 OVERALL BUDGET ERROR =          -5533.67           BUDGET ERROR =            -57.72


  PERCENT DISCREPANCY =             -0.13    PERCENT DISCREPANCY =             -0.09



1
 SUMMARY VOLUMETRIC BUDGET FOR GSFLOW 
 DATE: 12 23 1980              CUMULATIVE TIME STEP:      84
 MODFLOW STRESS PERIOD      2     CURRENT TIME STEP:      84     ITERATIONS:       9

 -----------------------------------------------------------------------------------

   CUMULATIVE VOLUMES               L**3   RATES FOR THIS TIME STEP           L**3/T
   ------------------                      ------------------------

                                     IN                                         IN
                                     --                                         --
        PRECIPITATION =        4516755.31          PRECIPITATION =                  
           STREAMFLOW =                               STREAMFLOW =                  
     GW BOUNDARY FLOW =                         GW BOUNDARY FLOW =                  


                                    OUT                                        OUT
                                    ---                                        ---
   EVAPOTRANSPIRATION =        1884582.20     EVAPOTRANSPIRATION =          37557.68
           STREAMFLOW =         943526.05             STREAMFLOW =          30766.20
     GW BOUNDARY FLOW =          54527.59       GW BOUNDARY FLOW =            651.94

   INFLOWS - OUTFLOWS =        1634119.48     INFLOWS - OUTFLOWS =         -68975.82
             --------                                   --------

 TOTAL STORAGE CHANGE =        1639910.11         STORAGE CHANGE =         -68942.71
       --------------                             --------------
         LAND SURFACE =        1331470.56           LAND SURFACE =         -52543.77
            SOIL ZONE =        1992909.81              SOIL ZONE =          -6078.80
     UNSATURATED ZONE =       -1345287.10       UNSATURATED ZONE =          -5781.78
       SATURATED ZONE =        -339183.17         SATURATED ZONE =          -4538.35

 OVERALL BUDGET ERROR =          -5790.63           BUDGET ERROR =            -33.11


  PERCENT DISCREPANCY =             -0.13    PERCENT DISCREPANCY =             -0.05



1
 SUMMARY VOLUMETRIC BUDGET FOR GSFLOW 
 DATE: 12 30 1980              CUMULATIVE TIME STEP:      91
 MODFLOW STRESS PERIOD      2     CURRENT TIME STEP:      91     ITERATIONS:      11

 -----------------------------------------------------------------------------------

   CUMULATIVE VOLUMES               L**3   RATES FOR THIS TIME STEP           L**3/T
   ------------------                      ------------------------

                                     IN                                         IN
                                     --                                         --
        PRECIPITATION =        4516755.31          PRECIPITATION =                  
           STREAMFLOW =                               STREAMFLOW =                  
     GW BOUNDARY FLOW =                         GW BOUNDARY FLOW =                  


                                    OUT                                        OUT
                                    ---                                        ---
   EVAPOTRANSPIRATION =        2264687.97     EVAPOTRANSPIRATION =          48689.89
           STREAMFLOW =        1187589.38             STREAMFLOW =          26983.67
     GW BOUNDARY FLOW =          59094.23       GW BOUNDARY FLOW =            652.34

   INFLOWS - OUTFLOWS =        1005383.73     INFLOWS - OUTFLOWS =         -76325.90
             --------                                   --------

 TOTAL STORAGE CHANGE =        1011312.14         STORAGE CHANGE =         -76311.55
       --------------                             --------------
         LAND SURFACE =         529446.97           LAND SURFACE =         -41358.17
            SOIL ZONE =        2204141.26              SOIL ZONE =         -25730.67
     UNSATURATED ZONE =       -1357573.87       UNSATURATED ZONE =          -4968.70
       SATURATED ZONE =        -364702.22         SATURATED ZONE =          -4254.02

 OVERALL BUDGET ERROR =          -5928.41           BUDGET ERROR =            -14.35


  PERCENT DISCREPANCY =             -0.13    PERCENT DISCREPANCY =             -0.02



1
 SUMMARY VOLUMETRIC BUDGET FOR GSFLOW 
 DATE: 01 06 1981              CUMULATIVE TIME STEP:      98
 MODFLOW STRESS PERIOD      2     CURRENT TIME STEP:      98     ITERATIONS:       8

 -----------------------------------------------------------------------------------

   CUMULATIVE VOLUMES               L**3   RATES FOR THIS TIME STEP           L**3/T
   ------------------                      ------------------------

                                     IN                                         IN
                                     --                                         --
        PRECIPITATION =        5004445.82          PRECIPITATION =                  
           STREAMFLOW =                               STREAMFLOW =                  
     GW BOUNDARY FLOW =                         GW BOUNDARY FLOW =                  


                                    OUT                                        OUT
                                    ---                                        ---
   EVAPOTRANSPIRATION =        2496181.35     EVAPOTRANSPIRATION =          21291.83
           STREAMFLOW =        1333752.32             STREAMFLOW =          19839.82
     GW BOUNDARY FLOW =          63654.93       GW BOUNDARY FLOW =            651.07

   INFLOWS - OUTFLOWS =        1110857.22     INFLOWS - OUTFLOWS =         -41782.72
             --------                                   --------

 TOTAL STORAGE CHANGE =        1116948.57         STORAGE CHANGE =         -41753.47
       --------------                             --------------
         LAND SURFACE =         783105.33           LAND SURFACE =         -28174.19
            SOIL ZONE =        2172666.62              SOIL ZONE =           4603.53
     UNSATURATED ZONE =       -1434414.50       UNSATURATED ZONE =         -12195.07
       SATURATED ZONE =        -404408.88         SATURATED ZONE =          -5987.74

 OVERALL BUDGET ERROR =          -6091.35           BUDGET ERROR =            -29.25


  PERCENT DISCREPANCY =             -0.12    PERCENT DISCREPANCY =             -0.07



1
 SUMMARY VOLUMETRIC BUDGET FOR GSFLOW 
 DATE: 01 13 1981              CUMULATIVE TIME STEP:     105
 MODFLOW STRESS PERIOD      2     CURRENT TIME STEP:     105     ITERATIONS:       7

 -----------------------------------------------------------------------------------

   CUMULATIVE VOLUMES               L**3   RATES FOR THIS TIME STEP           L**3/T
   ------------------                      ------------------------

                                     IN                                         IN
                                     --                                         --
        PRECIPITATION =        5004445.82          PRECIPITATION =                  
           STREAMFLOW =                               STREAMFLOW =                  
     GW BOUNDARY FLOW =                         GW BOUNDARY FLOW =                  


                                    OUT                                        OUT
                                    ---                                        ---
   EVAPOTRANSPIRATION =        2708012.60     EVAPOTRANSPIRATION =          43755.89
           STREAMFLOW =        1478209.21             STREAMFLOW =          19946.48
     GW BOUNDARY FLOW =          68211.45       GW BOUNDARY FLOW =            650.81

   INFLOWS - OUTFLOWS =         750012.56     INFLOWS - OUTFLOWS =         -64353.18
             --------                                   --------

 TOTAL STORAGE CHANGE =         756437.41         STORAGE CHANGE =         -64298.08
       --------------                             --------------
         LAND SURFACE =         556998.15           LAND SURFACE =         -38369.48
            SOIL ZONE =        2152475.23              SOIL ZONE =          -9866.10
     UNSATURATED ZONE =       -1504033.29       UNSATURATED ZONE =          -9410.32
       SATURATED ZONE =        -449002.68         SATURATED ZONE =          -6652.18

 OVERALL BUDGET ERROR =          -6424.85           BUDGET ERROR =            -55.10


  PERCENT DISCREPANCY =             -0.13    PERCENT DISCREPANCY =             -0.09



1
 SUMMARY VOLUMETRIC BUDGET FOR GSFLOW 
 DATE: 01 20 1981              CUMULATIVE TIME STEP:     112
 MODFLOW STRESS PERIOD      2     CURRENT TIME STEP:     112     ITERATIONS:       8

 -----------------------------------------------------------------------------------

   CUMULATIVE VOLUMES               L**3   RATES FOR THIS TIME STEP           L**3/T
   ------------------                      ------------------------

                                     IN                                         IN
                                     --                                         --
        PRECIPITATION =        5170468.48          PRECIPITATION =          41503.16
           STREAMFLOW =                               STREAMFLOW =                  
     GW BOUNDARY FLOW =                         GW BOUNDARY FLOW =                  


                                    OUT                                        OUT
                                    ---                                        ---
   EVAPOTRANSPIRATION =        3008961.64     EVAPOTRANSPIRATION =          54573.49
           STREAMFLOW =        1615327.74             STREAMFLOW =          19301.00
     GW BOUNDARY FLOW =          72765.88       GW BOUNDARY FLOW =            650.55

   INFLOWS - OUTFLOWS =         473413.22     INFLOWS - OUTFLOWS =         -33021.88
             --------                                   --------

 TOTAL STORAGE CHANGE =         480150.66         STORAGE CHANGE =         -32988.04
       --------------                             --------------
         LAND SURFACE =         392560.19           LAND SURFACE =           1262.98
            SOIL ZONE =        2128099.09              SOIL ZONE =         -23718.32
     UNSATURATED ZONE =       -1545338.42       UNSATURATED ZONE =          -3702.23
       SATURATED ZONE =        -495170.20         SATURATED ZONE =          -6830.47

 OVERALL BUDGET ERROR =          -6737.44           BUDGET ERROR =            -33.84


  PERCENT DISCREPANCY =             -0.13    PERCENT DISCREPANCY =             -0.05



1
 SUMMARY VOLUMETRIC BUDGET FOR GSFLOW 
 DATE: 01 27 1981              CUMULATIVE TIME STEP:     119
 MODFLOW STRESS PERIOD      2     CURRENT TIME STEP:     119     ITERATIONS:       8

 -----------------------------------------------------------------------------------

   CUMULATIVE VOLUMES               L**3   RATES FOR THIS TIME STEP           L**3/T
   ------------------                      ------------------------

                                     IN                                         IN
                                     --                                         --
        PRECIPITATION =        8646542.90          PRECIPITATION =        2936504.96
           STREAMFLOW =                               STREAMFLOW =                  
     GW BOUNDARY FLOW =                         GW BOUNDARY FLOW =                  


                                    OUT                                        OUT
                                    ---                                        ---
   EVAPOTRANSPIRATION =        3240752.21     EVAPOTRANSPIRATION =          12593.32
           STREAMFLOW =        1749007.35             STREAMFLOW =          17716.32
     GW BOUNDARY FLOW =          77319.05       GW BOUNDARY FLOW =            650.30

   INFLOWS - OUTFLOWS =        3579464.30     INFLOWS - OUTFLOWS =        2905545.02
             --------                                   --------

 TOTAL STORAGE CHANGE =        3586414.53         STORAGE CHANGE =        2905575.96
       --------------                             --------------
         LAND SURFACE =        3531533.77           LAND SURFACE =        2923911.72
            SOIL ZONE =        2161535.72              SOIL ZONE =          -3844.26
     UNSATURATED ZONE =       -1562307.31       UNSATURATED ZONE =          -7130.60
       SATURATED ZONE =        -544347.65         SATURATED ZONE =          -7360.90

 OVERALL BUDGET ERROR =          -6950.23           BUDGET ERROR =            -30.94


  PERCENT DISCREPANCY =             -0.08    PERCENT DISCREPANCY =             -0.00



1
 SUMMARY VOLUMETRIC BUDGET FOR GSFLOW 
 DATE: 02 03 1981              CUMULATIVE TIME STEP:     126
 MODFLOW STRESS PERIOD      2     CURRENT TIME STEP:     126     ITERATIONS:       8

 -----------------------------------------------------------------------------------

   CUMULATIVE VOLUMES               L**3   RATES FOR THIS TIME STEP           L**3/T
   ------------------                      ------------------------

                                     IN                                         IN
                                     --                                         --
        PRECIPITATION =        1.1739D+07          PRECIPITATION =                  
           STREAMFLOW =                               STREAMFLOW =                  
     GW BOUNDARY FLOW =                         GW BOUNDARY FLOW =                  


                                    OUT                                        OUT
                                    ---                                        ---
   EVAPOTRANSPIRATION =        3278100.69     EVAPOTRANSPIRATION =           8130.85
           STREAMFLOW =        1872098.54             STREAMFLOW =          17660.37
     GW BOUNDARY FLOW =          81870.57       GW BOUNDARY FLOW =            650.20

   INFLOWS - OUTFLOWS =        6506627.99     INFLOWS - OUTFLOWS =         -26441.43
             --------                                   --------

 TOTAL STORAGE CHANGE =        6513870.27         STORAGE CHANGE =         -26409.68
       --------------                             --------------
         LAND SURFACE =        6586340.18           LAND SURFACE =          -8130.85
            SOIL ZONE =        2160266.09              SOIL ZONE =            866.58
     UNSATURATED ZONE =       -1633987.66       UNSATURATED ZONE =         -11172.47
       SATURATED ZONE =        -598748.34         SATURATED ZONE =          -7972.94

 OVERALL BUDGET ERROR =          -7242.29           BUDGET ERROR =            -31.74


  PERCENT DISCREPANCY =             -0.06    PERCENT DISCREPANCY =             -0.12



1
 SUMMARY VOLUMETRIC BUDGET FOR GSFLOW 
 DATE: 02 10 1981              CUMULATIVE TIME STEP:     133
 MODFLOW STRESS PERIOD      2     CURRENT TIME STEP:     133     ITERATIONS:       7

 -----------------------------------------------------------------------------------

   CUMULATIVE VOLUMES               L**3   RATES FOR THIS TIME STEP           L**3/T
   ------------------                      ------------------------

                                     IN                                         IN
                                     --                                         --
        PRECIPITATION =        1.1838D+07          PRECIPITATION =                  
           STREAMFLOW =                               STREAMFLOW =                  
     GW BOUNDARY FLOW =                         GW BOUNDARY FLOW =                  


                                    OUT                                        OUT
                                    ---                                        ---
   EVAPOTRANSPIRATION =        3411903.04     EVAPOTRANSPIRATION =          34657.17
           STREAMFLOW =        1996620.03             STREAMFLOW =          17863.54
     GW BOUNDARY FLOW =          86422.05       GW BOUNDARY FLOW =            650.21

   INFLOWS - OUTFLOWS =        6343318.12     INFLOWS - OUTFLOWS =         -53170.92
             --------                                   --------

 TOTAL STORAGE CHANGE =        6350857.54         STORAGE CHANGE =         -53106.57
       --------------                             --------------
         LAND SURFACE =        6552103.29           LAND SURFACE =         -34657.17
            SOIL ZONE =        2165632.95              SOIL ZONE =            648.17
     UNSATURATED ZONE =       -1710227.30       UNSATURATED ZONE =         -10633.42
       SATURATED ZONE =        -656651.39         SATURATED ZONE =          -8464.15

 OVERALL BUDGET ERROR =          -7539.43           BUDGET ERROR =            -64.35


  PERCENT DISCREPANCY =             -0.06    PERCENT DISCREPANCY =             -0.12



1
 SUMMARY VOLUMETRIC BUDGET FOR GSFLOW 
 DATE: 02 17 1981              CUMULATIVE TIME STEP:     140
 MODFLOW STRESS PERIOD      2     CURRENT TIME STEP:     140     ITERATIONS:      14

 -----------------------------------------------------------------------------------

   CUMULATIVE VOLUMES               L**3   RATES FOR THIS TIME STEP           L**3/T
   ------------------                      ------------------------

                                     IN                                         IN
                                     --                                         --
        PRECIPITATION =        1.2765D+07          PRECIPITATION =          68928.68
           STREAMFLOW =                               STREAMFLOW =                  
     GW BOUNDARY FLOW =                         GW BOUNDARY FLOW =                  


                                    OUT                                        OUT
                                    ---                                        ---
   EVAPOTRANSPIRATION =        3760060.72     EVAPOTRANSPIRATION =          71030.99
           STREAMFLOW =        2508302.63             STREAMFLOW =         121584.84
     GW BOUNDARY FLOW =          90994.35       GW BOUNDARY FLOW =            656.59

   INFLOWS - OUTFLOWS =        6405622.96     INFLOWS - OUTFLOWS =        -124343.74
             --------                                   --------

 TOTAL STORAGE CHANGE =        6413398.52         STORAGE CHANGE =        -124339.05
       --------------                             --------------
         LAND SURFACE =        5604894.48           LAND SURFACE =        -287595.36
            SOIL ZONE =        2973136.41              SOIL ZONE =          85505.21
     UNSATURATED ZONE =       -1487860.57       UNSATURATED ZONE =          75836.13
       SATURATED ZONE =        -676771.79         SATURATED ZONE =           1914.97

 OVERALL BUDGET ERROR =          -7775.56           BUDGET ERROR =             -4.69


  PERCENT DISCREPANCY =             -0.06    PERCENT DISCREPANCY =             -0.00



1
 SUMMARY VOLUMETRIC BUDGET FOR GSFLOW 
 DATE: 02 24 1981              CUMULATIVE TIME STEP:     147
 MODFLOW STRESS PERIOD      2     CURRENT TIME STEP:     147     ITERATIONS:      14

 -----------------------------------------------------------------------------------

   CUMULATIVE VOLUMES               L**3   RATES FOR THIS TIME STEP           L**3/T
   ------------------                      ------------------------

                                     IN                                         IN
                                     --                                         --
        PRECIPITATION =        1.3179D+07          PRECIPITATION =         344647.71
           STREAMFLOW =                               STREAMFLOW =                  
     GW BOUNDARY FLOW =                         GW BOUNDARY FLOW =                  


                                    OUT                                        OUT
                                    ---                                        ---
   EVAPOTRANSPIRATION =        4136177.51     EVAPOTRANSPIRATION =          19832.91
           STREAMFLOW =        3077853.62             STREAMFLOW =          50857.36
     GW BOUNDARY FLOW =          95588.43       GW BOUNDARY FLOW =            655.28

   INFLOWS - OUTFLOWS =        5868938.90     INFLOWS - OUTFLOWS =         273302.15
             --------                                   --------

 TOTAL STORAGE CHANGE =        5876619.86         STORAGE CHANGE =         273283.39
       --------------                             --------------
         LAND SURFACE =        4925109.93           LAND SURFACE =         300251.60
            SOIL ZONE =        2724619.42              SOIL ZONE =         -57831.84
     UNSATURATED ZONE =       -1118079.89       UNSATURATED ZONE =          28700.44
       SATURATED ZONE =        -655029.61         SATURATED ZONE =           2163.18

 OVERALL BUDGET ERROR =          -7680.96           BUDGET ERROR =             18.76


  PERCENT DISCREPANCY =             -0.06    PERCENT DISCREPANCY =              0.01



1
 SUMMARY VOLUMETRIC BUDGET FOR GSFLOW 
 DATE: 03 03 1981              CUMULATIVE TIME STEP:     154
 MODFLOW STRESS PERIOD      2     CURRENT TIME STEP:     154     ITERATIONS:      12

 -----------------------------------------------------------------------------------

   CUMULATIVE VOLUMES               L**3   RATES FOR THIS TIME STEP           L**3/T
   ------------------                      ------------------------

                                     IN                                         IN
                                     --                                         --
        PRECIPITATION =        1.3447D+07          PRECIPITATION =                  
           STREAMFLOW =                               STREAMFLOW =                  
     GW BOUNDARY FLOW =                         GW BOUNDARY FLOW =                  


                                    OUT                                        OUT
                                    ---                                        ---
   EVAPOTRANSPIRATION =        4298849.46     EVAPOTRANSPIRATION =          44568.32
           STREAMFLOW =        3300057.92             STREAMFLOW =          27131.56
     GW BOUNDARY FLOW =         100161.42       GW BOUNDARY FLOW =            652.27

   INFLOWS - OUTFLOWS =        5747549.99     INFLOWS - OUTFLOWS =         -72352.15
             --------                                   --------

 TOTAL STORAGE CHANGE =        5755078.27         STORAGE CHANGE =         -72369.17
       --------------                             --------------
         LAND SURFACE =        5011972.63           LAND SURFACE =         -61722.17
            SOIL ZONE =        2512972.62              SOIL ZONE =            461.56
     UNSATURATED ZONE =       -1108629.97       UNSATURATED ZONE =          -8498.31
       SATURATED ZONE =        -661237.01         SATURATED ZONE =          -2610.25

 OVERALL BUDGET ERROR =          -7528.28           BUDGET ERROR =             17.02


  PERCENT DISCREPANCY =             -0.06    PERCENT DISCREPANCY =              0.02



1
 SUMMARY VOLUMETRIC BUDGET FOR GSFLOW 
 DATE: 03 10 1981              CUMULATIVE TIME STEP:     161
 MODFLOW STRESS PERIOD      2     CURRENT TIME STEP:     161     ITERATIONS:      11

 -----------------------------------------------------------------------------------

   CUMULATIVE VOLUMES               L**3   RATES FOR THIS TIME STEP           L**3/T
   ------------------                      ------------------------

                                     IN                                         IN
                                     --                                         --
        PRECIPITATION =        1.3493D+07          PRECIPITATION =                  
           STREAMFLOW =                               STREAMFLOW =                  
     GW BOUNDARY FLOW =                         GW BOUNDARY FLOW =                  


                                    OUT                                        OUT
                                    ---                                        ---
   EVAPOTRANSPIRATION =        4640024.42     EVAPOTRANSPIRATION =          71562.45
           STREAMFLOW =        3528163.17             STREAMFLOW =          41836.87
     GW BOUNDARY FLOW =         104727.09       GW BOUNDARY FLOW =            652.83

   INFLOWS - OUTFLOWS =        5220039.84     INFLOWS - OUTFLOWS =        -114052.15
             --------                                   --------

 TOTAL STORAGE CHANGE =        5227463.02         STORAGE CHANGE =        -114067.85
       --------------                             --------------
         LAND SURFACE =        4369723.85           LAND SURFACE =        -162552.80
            SOIL ZONE =        2618311.58              SOIL ZONE =          28507.71
     UNSATURATED ZONE =       -1082774.44       UNSATURATED ZONE =          21050.18
       SATURATED ZONE =        -677797.97         SATURATED ZONE =          -1072.93

 OVERALL BUDGET ERROR =          -7423.18           BUDGET ERROR =             15.70


  PERCENT DISCREPANCY =             -0.06    PERCENT DISCREPANCY =              0.01



1
 SUMMARY VOLUMETRIC BUDGET FOR GSFLOW 
 DATE: 03 17 1981              CUMULATIVE TIME STEP:     168
 MODFLOW STRESS PERIOD      2     CURRENT TIME STEP:     168     ITERATIONS:       9

 -----------------------------------------------------------------------------------

   CUMULATIVE VOLUMES               L**3   RATES FOR THIS TIME STEP           L**3/T
   ------------------                      ------------------------

                                     IN                                         IN
                                     --                                         --
        PRECIPITATION =        1.3745D+07          PRECIPITATION =                  
           STREAMFLOW =                               STREAMFLOW =                  
     GW BOUNDARY FLOW =                         GW BOUNDARY FLOW =                  


                                    OUT                                        OUT
                                    ---                                        ---
   EVAPOTRANSPIRATION =        4999480.68     EVAPOTRANSPIRATION =          39557.19
           STREAMFLOW =        3751119.80             STREAMFLOW =          23754.75
     GW BOUNDARY FLOW =         109294.21       GW BOUNDARY FLOW =            651.88

   INFLOWS - OUTFLOWS =        4884608.13     INFLOWS - OUTFLOWS =         -63963.82
             --------                                   --------

 TOTAL STORAGE CHANGE =        4891922.66         STORAGE CHANGE =         -63965.54
       --------------                             --------------
         LAND SURFACE =        4198119.48           LAND SURFACE =         -39206.25
            SOIL ZONE =        2457068.88              SOIL ZONE =          -4523.31
     UNSATURATED ZONE =       -1066247.79       UNSATURATED ZONE =         -15443.11
       SATURATED ZONE =        -697017.90         SATURATED ZONE =          -4792.88

 OVERALL BUDGET ERROR =          -7314.53           BUDGET ERROR =              1.72


  PERCENT DISCREPANCY =             -0.05    PERCENT DISCREPANCY =              0.00



1
 SUMMARY VOLUMETRIC BUDGET FOR GSFLOW 
 DATE: 03 24 1981              CUMULATIVE TIME STEP:     175
 MODFLOW STRESS PERIOD      2     CURRENT TIME STEP:     175     ITERATIONS:       8

 -----------------------------------------------------------------------------------

   CUMULATIVE VOLUMES               L**3   RATES FOR THIS TIME STEP           L**3/T
   ------------------                      ------------------------

                                     IN                                         IN
                                     --                                         --
        PRECIPITATION =        1.4367D+07          PRECIPITATION =                  
           STREAMFLOW =                               STREAMFLOW =                  
     GW BOUNDARY FLOW =                         GW BOUNDARY FLOW =                  


                                    OUT                                        OUT
                                    ---                                        ---
   EVAPOTRANSPIRATION =        5352553.12     EVAPOTRANSPIRATION =          85696.82
           STREAMFLOW =        3916752.18             STREAMFLOW =          25225.23
     GW BOUNDARY FLOW =         113854.13       GW BOUNDARY FLOW =            651.31

   INFLOWS - OUTFLOWS =        4983596.80     INFLOWS - OUTFLOWS =        -111573.35
             --------                                   --------

 TOTAL STORAGE CHANGE =        4990925.91         STORAGE CHANGE =        -111564.54
       --------------                             --------------
         LAND SURFACE =        4528959.93           LAND SURFACE =         -63588.50
            SOIL ZONE =        2343346.75              SOIL ZONE =         -36120.17
     UNSATURATED ZONE =       -1146128.35       UNSATURATED ZONE =          -6148.66
       SATURATED ZONE =        -735252.43         SATURATED ZONE =          -5707.20

 OVERALL BUDGET ERROR =          -7329.11           BUDGET ERROR =             -8.82


  PERCENT DISCREPANCY =             -0.05    PERCENT DISCREPANCY =             -0.01



1
 SUMMARY VOLUMETRIC BUDGET FOR GSFLOW 
 DATE: 03 31 1981              CUMULATIVE TIME STEP:     182
 MODFLOW STRESS PERIOD      2     CURRENT TIME STEP:     182     ITERATIONS:      12

 -----------------------------------------------------------------------------------

   CUMULATIVE VOLUMES               L**3   RATES FOR THIS TIME STEP           L**3/T
   ------------------                      ------------------------

                                     IN                                         IN
                                     --                                         --
        PRECIPITATION =        1.5777D+07          PRECIPITATION =                  
           STREAMFLOW =                               STREAMFLOW =                  
     GW BOUNDARY FLOW =                         GW BOUNDARY FLOW =                  


                                    OUT                                        OUT
                                    ---                                        ---
   EVAPOTRANSPIRATION =        5778062.47     EVAPOTRANSPIRATION =          55421.24
           STREAMFLOW =        4365635.69             STREAMFLOW =          33538.21
     GW BOUNDARY FLOW =         118432.75       GW BOUNDARY FLOW =            653.16

   INFLOWS - OUTFLOWS =        5514635.27     INFLOWS - OUTFLOWS =         -89612.61
             --------                                   --------

 TOTAL STORAGE CHANGE =        5521864.88         STORAGE CHANGE =         -89635.43
       --------------                             --------------
         LAND SURFACE =        4697103.43           LAND SURFACE =         -55743.36
            SOIL ZONE =        2522229.22              SOIL ZONE =         -31957.27
     UNSATURATED ZONE =        -957926.79       UNSATURATED ZONE =            359.46
       SATURATED ZONE =        -739540.98         SATURATED ZONE =          -2294.26

 OVERALL BUDGET ERROR =          -7229.61           BUDGET ERROR =             22.81


  PERCENT DISCREPANCY =             -0.05    PERCENT DISCREPANCY =              0.03



1
 SUMMARY VOLUMETRIC BUDGET FOR GSFLOW 
 DATE: 04 07 1981              CUMULATIVE TIME STEP:     189
 MODFLOW STRESS PERIOD      2     CURRENT TIME STEP:     189     ITERATIONS:      10

 -----------------------------------------------------------------------------------

   CUMULATIVE VOLUMES               L**3   RATES FOR THIS TIME STEP           L**3/T
   ------------------                      ------------------------

                                     IN                                         IN
                                     --                                         --
        PRECIPITATION =        1.6121D+07          PRECIPITATION =                  
           STREAMFLOW =                               STREAMFLOW =                  
     GW BOUNDARY FLOW =                         GW BOUNDARY FLOW =                  


                                    OUT                                        OUT
                                    ---                                        ---
   EVAPOTRANSPIRATION =        6423667.06     EVAPOTRANSPIRATION =         106275.95
           STREAMFLOW =        4661825.26             STREAMFLOW =          42212.84
     GW BOUNDARY FLOW =         123005.93       GW BOUNDARY FLOW =            653.58

   INFLOWS - OUTFLOWS =        4912984.89     INFLOWS - OUTFLOWS =        -149142.37
             --------                                   --------

 TOTAL STORAGE CHANGE =        4920084.62         STORAGE CHANGE =        -149166.47
       --------------                             --------------
         LAND SURFACE =        4078016.32           LAND SURFACE =        -145758.59
            SOIL ZONE =        2481529.39              SOIL ZONE =         -13403.57
     UNSATURATED ZONE =        -891409.20       UNSATURATED ZONE =          10666.09
       SATURATED ZONE =        -748051.89         SATURATED ZONE =           -670.39

 OVERALL BUDGET ERROR =          -7099.73           BUDGET ERROR =             24.10


  PERCENT DISCREPANCY =             -0.04    PERCENT DISCREPANCY =              0.02



1
 SUMMARY VOLUMETRIC BUDGET FOR GSFLOW 
 DATE: 04 14 1981              CUMULATIVE TIME STEP:     196
 MODFLOW STRESS PERIOD      2     CURRENT TIME STEP:     196     ITERATIONS:      12

 -----------------------------------------------------------------------------------

   CUMULATIVE VOLUMES               L**3   RATES FOR THIS TIME STEP           L**3/T
   ------------------                      ------------------------

                                     IN                                         IN
                                     --                                         --
        PRECIPITATION =        1.6121D+07          PRECIPITATION =                  
           STREAMFLOW =                               STREAMFLOW =                  
     GW BOUNDARY FLOW =                         GW BOUNDARY FLOW =                  


                                    OUT                                        OUT
                                    ---                                        ---
   EVAPOTRANSPIRATION =        7350698.10     EVAPOTRANSPIRATION =         190847.08
           STREAMFLOW =        4986441.18             STREAMFLOW =          55261.13
     GW BOUNDARY FLOW =         127580.52       GW BOUNDARY FLOW =            653.52

   INFLOWS - OUTFLOWS =        3656763.34     INFLOWS - OUTFLOWS =        -246761.73
             --------                                   --------

 TOTAL STORAGE CHANGE =        3663697.05         STORAGE CHANGE =        -246778.04
       --------------                             --------------
         LAND SURFACE =        2766600.67           LAND SURFACE =        -261667.29
            SOIL ZONE =        2439705.39              SOIL ZONE =          -6922.46
     UNSATURATED ZONE =        -793255.50       UNSATURATED ZONE =          20645.71
       SATURATED ZONE =        -749353.52         SATURATED ZONE =           1166.01

 OVERALL BUDGET ERROR =          -6933.70           BUDGET ERROR =             16.31


  PERCENT DISCREPANCY =             -0.04    PERCENT DISCREPANCY =              0.01



1
 SUMMARY VOLUMETRIC BUDGET FOR GSFLOW 
 DATE: 04 21 1981              CUMULATIVE TIME STEP:     203
 MODFLOW STRESS PERIOD      2     CURRENT TIME STEP:     203     ITERATIONS:      13

 -----------------------------------------------------------------------------------

   CUMULATIVE VOLUMES               L**3   RATES FOR THIS TIME STEP           L**3/T
   ------------------                      ------------------------

                                     IN                                         IN
                                     --                                         --
        PRECIPITATION =        1.6310D+07          PRECIPITATION =                  
           STREAMFLOW =                               STREAMFLOW =                  
     GW BOUNDARY FLOW =                         GW BOUNDARY FLOW =                  


                                    OUT                                        OUT
                                    ---                                        ---
   EVAPOTRANSPIRATION =        8443147.71     EVAPOTRANSPIRATION =         161783.79
           STREAMFLOW =        5327873.70             STREAMFLOW =          46164.28
     GW BOUNDARY FLOW =         132151.29       GW BOUNDARY FLOW =            652.57

   INFLOWS - OUTFLOWS =        2407084.72     INFLOWS - OUTFLOWS =        -208600.64
             --------                                   --------

 TOTAL STORAGE CHANGE =        2413863.41         STORAGE CHANGE =        -208627.14
       --------------                             --------------
         LAND SURFACE =        1526141.72           LAND SURFACE =        -128414.83
            SOIL ZONE =        2289181.56              SOIL ZONE =        -100958.60
     UNSATURATED ZONE =        -662441.95       UNSATURATED ZONE =          18760.78
       SATURATED ZONE =        -739017.92         SATURATED ZONE =           1985.51

 OVERALL BUDGET ERROR =          -6778.69           BUDGET ERROR =             26.50


  PERCENT DISCREPANCY =             -0.04    PERCENT DISCREPANCY =              0.01



1
 SUMMARY VOLUMETRIC BUDGET FOR GSFLOW 
 DATE: 04 28 1981              CUMULATIVE TIME STEP:     210
 MODFLOW STRESS PERIOD      2     CURRENT TIME STEP:     210     ITERATIONS:      13

 -----------------------------------------------------------------------------------

   CUMULATIVE VOLUMES               L**3   RATES FOR THIS TIME STEP           L**3/T
   ------------------                      ------------------------

                                     IN                                         IN
                                     --                                         --
        PRECIPITATION =        1.6515D+07          PRECIPITATION =                  
           STREAMFLOW =                               STREAMFLOW =                  
     GW BOUNDARY FLOW =                         GW BOUNDARY FLOW =                  


                                    OUT                                        OUT
                                    ---                                        ---
   EVAPOTRANSPIRATION =        9725518.94     EVAPOTRANSPIRATION =         204154.09
           STREAMFLOW =        5537187.55             STREAMFLOW =          23080.19
     GW BOUNDARY FLOW =         136710.27       GW BOUNDARY FLOW =            650.34

   INFLOWS - OUTFLOWS =        1116030.20     INFLOWS - OUTFLOWS =        -227884.62
             --------                                   --------

 TOTAL STORAGE CHANGE =        1122632.76         STORAGE CHANGE =        -227910.41
       --------------                             --------------
         LAND SURFACE =         765041.90           LAND SURFACE =         -86581.37
            SOIL ZONE =        1746784.19              SOIL ZONE =        -136554.63
     UNSATURATED ZONE =        -647610.75       UNSATURATED ZONE =          -3561.12
       SATURATED ZONE =        -741582.58         SATURATED ZONE =          -1213.28

 OVERALL BUDGET ERROR =          -6602.56           BUDGET ERROR =             25.79


  PERCENT DISCREPANCY =             -0.04    PERCENT DISCREPANCY =              0.01



1
 SUMMARY VOLUMETRIC BUDGET FOR GSFLOW 
 DATE: 05 05 1981              CUMULATIVE TIME STEP:     217
 MODFLOW STRESS PERIOD      2     CURRENT TIME STEP:     217     ITERATIONS:      14

 -----------------------------------------------------------------------------------

   CUMULATIVE VOLUMES               L**3   RATES FOR THIS TIME STEP           L**3/T
   ------------------                      ------------------------

                                     IN                                         IN
                                     --                                         --
        PRECIPITATION =        1.6515D+07          PRECIPITATION =                  
           STREAMFLOW =                               STREAMFLOW =                  
     GW BOUNDARY FLOW =                         GW BOUNDARY FLOW =                  


                                    OUT                                        OUT
                                    ---                                        ---
   EVAPOTRANSPIRATION =        1.0634D+07     EVAPOTRANSPIRATION =          58032.26
           STREAMFLOW =        5635865.16             STREAMFLOW =          10212.75
     GW BOUNDARY FLOW =         141255.59       GW BOUNDARY FLOW =            648.66

   INFLOWS - OUTFLOWS =         104443.56     INFLOWS - OUTFLOWS =         -68893.67
             --------                                   --------

 TOTAL STORAGE CHANGE =         110950.59         STORAGE CHANGE =         -68905.24
       --------------                             --------------
         LAND SURFACE =         399244.39           LAND SURFACE =         -19315.26
            SOIL ZONE =        1209863.47              SOIL ZONE =         -30712.22
     UNSATURATED ZONE =        -735527.06       UNSATURATED ZONE =         -15577.60
       SATURATED ZONE =        -762630.20         SATURATED ZONE =          -3300.16

 OVERALL BUDGET ERROR =          -6507.04           BUDGET ERROR =             11.57


  PERCENT DISCREPANCY =             -0.04    PERCENT DISCREPANCY =              0.02



1
 SUMMARY VOLUMETRIC BUDGET FOR GSFLOW 
 DATE: 05 12 1981              CUMULATIVE TIME STEP:     224
 MODFLOW STRESS PERIOD      2     CURRENT TIME STEP:     224     ITERATIONS:      11

 -----------------------------------------------------------------------------------

   CUMULATIVE VOLUMES               L**3   RATES FOR THIS TIME STEP           L**3/T
   ------------------                      ------------------------

                                     IN                                         IN
                                     --                                         --
        PRECIPITATION =        1.6515D+07          PRECIPITATION =                  
           STREAMFLOW =                               STREAMFLOW =                  
     GW BOUNDARY FLOW =                         GW BOUNDARY FLOW =                  


                                    OUT                                        OUT
                                    ---                                        ---
   EVAPOTRANSPIRATION =        1.1167D+07     EVAPOTRANSPIRATION =          94988.28
           STREAMFLOW =        5703822.67             STREAMFLOW =          10208.61
     GW BOUNDARY FLOW =         145793.54       GW BOUNDARY FLOW =            648.14

   INFLOWS - OUTFLOWS =        -501190.72     INFLOWS - OUTFLOWS =        -105845.03
             --------                                   --------

 TOTAL STORAGE CHANGE =        -494773.25         STORAGE CHANGE =        -105855.91
       --------------                             --------------
         LAND SURFACE =         236028.85           LAND SURFACE =         -28466.58
            SOIL ZONE =         900288.56              SOIL ZONE =         -59123.75
     UNSATURATED ZONE =        -835794.94       UNSATURATED ZONE =         -12702.12
       SATURATED ZONE =        -795295.72         SATURATED ZONE =          -5563.46

 OVERALL BUDGET ERROR =          -6417.47           BUDGET ERROR =             10.88


  PERCENT DISCREPANCY =             -0.04    PERCENT DISCREPANCY =              0.01



1
 SUMMARY VOLUMETRIC BUDGET FOR GSFLOW 
 DATE: 05 19 1981              CUMULATIVE TIME STEP:     231
 MODFLOW STRESS PERIOD      2     CURRENT TIME STEP:     231     ITERATIONS:      14

 -----------------------------------------------------------------------------------

   CUMULATIVE VOLUMES               L**3   RATES FOR THIS TIME STEP           L**3/T
   ------------------                      ------------------------

                                     IN                                         IN
                                     --                                         --
        PRECIPITATION =        1.7837D+07          PRECIPITATION =         169047.83
           STREAMFLOW =                               STREAMFLOW =                  
     GW BOUNDARY FLOW =                         GW BOUNDARY FLOW =                  


                                    OUT                                        OUT
                                    ---                                        ---
   EVAPOTRANSPIRATION =        1.1591D+07     EVAPOTRANSPIRATION =          34209.10
           STREAMFLOW =        5822624.05             STREAMFLOW =          21658.45
     GW BOUNDARY FLOW =         150332.26       GW BOUNDARY FLOW =            649.23

   INFLOWS - OUTFLOWS =         273391.94     INFLOWS - OUTFLOWS =         112531.05
             --------                                   --------

 TOTAL STORAGE CHANGE =         279748.12         STORAGE CHANGE =         112522.08
       --------------                             --------------
         LAND SURFACE =         199378.22           LAND SURFACE =          20104.58
            SOIL ZONE =        1816031.61              SOIL ZONE =          99978.38
     UNSATURATED ZONE =        -896575.87       UNSATURATED ZONE =           -628.05
       SATURATED ZONE =        -839085.84         SATURATED ZONE =          -6932.82

 OVERALL BUDGET ERROR =          -6356.18           BUDGET ERROR =              8.97


  PERCENT DISCREPANCY =             -0.04    PERCENT DISCREPANCY =              0.01



1
 SUMMARY VOLUMETRIC BUDGET FOR GSFLOW 
 DATE: 05 26 1981              CUMULATIVE TIME STEP:     238
 MODFLOW STRESS PERIOD      2     CURRENT TIME STEP:     238     ITERATIONS:      14

 -----------------------------------------------------------------------------------

   CUMULATIVE VOLUMES               L**3   RATES FOR THIS TIME STEP           L**3/T
   ------------------                      ------------------------

                                     IN                                         IN
                                     --                                         --
        PRECIPITATION =        1.8252D+07          PRECIPITATION =         284301.98
           STREAMFLOW =                               STREAMFLOW =                  
     GW BOUNDARY FLOW =                         GW BOUNDARY FLOW =                  


                                    OUT                                        OUT
                                    ---                                        ---
   EVAPOTRANSPIRATION =        1.2494D+07     EVAPOTRANSPIRATION =         145733.70
           STREAMFLOW =        5921085.29             STREAMFLOW =          17670.78
     GW BOUNDARY FLOW =         154871.74       GW BOUNDARY FLOW =            648.31

   INFLOWS - OUTFLOWS =        -317865.78     INFLOWS - OUTFLOWS =         120249.18
             --------                                   --------

 TOTAL STORAGE CHANGE =        -311555.35         STORAGE CHANGE =         120241.28
       --------------                             --------------
         LAND SURFACE =         121447.14           LAND SURFACE =          -8077.84
            SOIL ZONE =        1413786.38              SOIL ZONE =         145835.01
     UNSATURATED ZONE =        -954208.53       UNSATURATED ZONE =         -10103.50
       SATURATED ZONE =        -892580.33         SATURATED ZONE =          -7412.39

 OVERALL BUDGET ERROR =          -6310.43           BUDGET ERROR =              7.90


  PERCENT DISCREPANCY =             -0.03    PERCENT DISCREPANCY =              0.00



1
 SUMMARY VOLUMETRIC BUDGET FOR GSFLOW 
 DATE: 06 02 1981              CUMULATIVE TIME STEP:     245
 MODFLOW STRESS PERIOD      2     CURRENT TIME STEP:     245     ITERATIONS:      12

 -----------------------------------------------------------------------------------

   CUMULATIVE VOLUMES               L**3   RATES FOR THIS TIME STEP           L**3/T
   ------------------                      ------------------------

                                     IN                                         IN
                                     --                                         --
        PRECIPITATION =        1.8318D+07          PRECIPITATION =          50867.39
           STREAMFLOW =                               STREAMFLOW =                  
     GW BOUNDARY FLOW =                         GW BOUNDARY FLOW =                  


                                    OUT                                        OUT
                                    ---                                        ---
   EVAPOTRANSPIRATION =        1.3293D+07     EVAPOTRANSPIRATION =          74534.46
           STREAMFLOW =        5986873.85             STREAMFLOW =           7557.01
     GW BOUNDARY FLOW =         159406.04       GW BOUNDARY FLOW =            647.37

   INFLOWS - OUTFLOWS =       -1121100.87     INFLOWS - OUTFLOWS =         -31871.45
             --------                                   --------

 TOTAL STORAGE CHANGE =       -1114816.29         STORAGE CHANGE =         -31881.12
       --------------                             --------------
         LAND SURFACE =          76065.81           LAND SURFACE =          28539.47
            SOIL ZONE =         797246.13              SOIL ZONE =         -39099.39
     UNSATURATED ZONE =       -1034783.65       UNSATURATED ZONE =         -12272.91
       SATURATED ZONE =        -953344.58         SATURATED ZONE =          -9048.29

 OVERALL BUDGET ERROR =          -6284.58           BUDGET ERROR =              9.67


  PERCENT DISCREPANCY =             -0.03    PERCENT DISCREPANCY =              0.01



1
 SUMMARY VOLUMETRIC BUDGET FOR GSFLOW 
 DATE: 06 09 1981              CUMULATIVE TIME STEP:     252
 MODFLOW STRESS PERIOD      2     CURRENT TIME STEP:     252     ITERATIONS:      15

 -----------------------------------------------------------------------------------

   CUMULATIVE VOLUMES               L**3   RATES FOR THIS TIME STEP           L**3/T
   ------------------                      ------------------------

                                     IN                                         IN
                                     --                                         --
        PRECIPITATION =        1.8318D+07          PRECIPITATION =                  
           STREAMFLOW =                               STREAMFLOW =                  
     GW BOUNDARY FLOW =                         GW BOUNDARY FLOW =                  


                                    OUT                                        OUT
                                    ---                                        ---
   EVAPOTRANSPIRATION =        1.3768D+07     EVAPOTRANSPIRATION =          51391.43
           STREAMFLOW =        6033484.56             STREAMFLOW =           6275.13
     GW BOUNDARY FLOW =         163935.61       GW BOUNDARY FLOW =            646.92

   INFLOWS - OUTFLOWS =       -1647593.38     INFLOWS - OUTFLOWS =         -58313.48
             --------                                   --------

 TOTAL STORAGE CHANGE =       -1641290.82         STORAGE CHANGE =         -58313.28
       --------------                             --------------
         LAND SURFACE =          13609.96           LAND SURFACE =          -3000.14
            SOIL ZONE =         486182.35              SOIL ZONE =         -33349.79
     UNSATURATED ZONE =       -1120430.54       UNSATURATED ZONE =         -12063.92
       SATURATED ZONE =       -1020652.59         SATURATED ZONE =          -9899.43

 OVERALL BUDGET ERROR =          -6302.56           BUDGET ERROR =             -0.20


  PERCENT DISCREPANCY =             -0.03    PERCENT DISCREPANCY =             -0.00



1
 SUMMARY VOLUMETRIC BUDGET FOR GSFLOW 
 DATE: 06 16 1981              CUMULATIVE TIME STEP:     259
 MODFLOW STRESS PERIOD      2     CURRENT TIME STEP:     259     ITERATIONS:      13

 -----------------------------------------------------------------------------------

   CUMULATIVE VOLUMES               L**3   RATES FOR THIS TIME STEP           L**3/T
   ------------------                      ------------------------

                                     IN                                         IN
                                     --                                         --
        PRECIPITATION =        1.8318D+07          PRECIPITATION =                  
           STREAMFLOW =                               STREAMFLOW =                  
     GW BOUNDARY FLOW =                         GW BOUNDARY FLOW =                  


                                    OUT                                        OUT
                                    ---                                        ---
   EVAPOTRANSPIRATION =        1.3956D+07     EVAPOTRANSPIRATION =          43918.47
           STREAMFLOW =        6076123.01             STREAMFLOW =           6023.15
     GW BOUNDARY FLOW =         168463.15       GW BOUNDARY FLOW =            646.71

   INFLOWS - OUTFLOWS =       -1882595.87     INFLOWS - OUTFLOWS =         -50588.33
             --------                                   --------

 TOTAL STORAGE CHANGE =       -1876314.14         STORAGE CHANGE =         -50594.18
       --------------                             --------------
         LAND SURFACE =           6267.42           LAND SURFACE =          -1304.38
            SOIL ZONE =         410979.35              SOIL ZONE =         -27635.36
     UNSATURATED ZONE =       -1202089.19       UNSATURATED ZONE =         -11555.22
       SATURATED ZONE =       -1091471.73         SATURATED ZONE =         -10099.22

 OVERALL BUDGET ERROR =          -6281.73           BUDGET ERROR =              5.85


  PERCENT DISCREPANCY =             -0.03    PERCENT DISCREPANCY =              0.01



1
 SUMMARY VOLUMETRIC BUDGET FOR GSFLOW 
 DATE: 06 23 1981              CUMULATIVE TIME STEP:     266
 MODFLOW STRESS PERIOD      2     CURRENT TIME STEP:     266     ITERATIONS:      10

 -----------------------------------------------------------------------------------

   CUMULATIVE VOLUMES               L**3   RATES FOR THIS TIME STEP           L**3/T
   ------------------                      ------------------------

                                     IN                                         IN
                                     --                                         --
        PRECIPITATION =        1.8318D+07          PRECIPITATION =                  
           STREAMFLOW =                               STREAMFLOW =                  
     GW BOUNDARY FLOW =                         GW BOUNDARY FLOW =                  


                                    OUT                                        OUT
                                    ---                                        ---
   EVAPOTRANSPIRATION =        1.4230D+07     EVAPOTRANSPIRATION =          30663.66
           STREAMFLOW =        6117630.40             STREAMFLOW =           5874.30
     GW BOUNDARY FLOW =         172989.44       GW BOUNDARY FLOW =            646.54

   INFLOWS - OUTFLOWS =       -2202256.87     INFLOWS - OUTFLOWS =         -37184.50
             --------                                   --------

 TOTAL STORAGE CHANGE =       -2195966.03         STORAGE CHANGE =         -37182.23
       --------------                             --------------
         LAND SURFACE =                             LAND SURFACE =                  
            SOIL ZONE =         248010.85              SOIL ZONE =         -15811.42
     UNSATURATED ZONE =       -1280619.20       UNSATURATED ZONE =         -10895.89
       SATURATED ZONE =       -1163357.67         SATURATED ZONE =         -10474.92

 OVERALL BUDGET ERROR =          -6290.84           BUDGET ERROR =             -2.28


  PERCENT DISCREPANCY =             -0.03    PERCENT DISCREPANCY =             -0.01



1
 SUMMARY VOLUMETRIC BUDGET FOR GSFLOW 
 DATE: 06 30 1981              CUMULATIVE TIME STEP:     273
 MODFLOW STRESS PERIOD      2     CURRENT TIME STEP:     273     ITERATIONS:      13

 -----------------------------------------------------------------------------------

   CUMULATIVE VOLUMES               L**3   RATES FOR THIS TIME STEP           L**3/T
   ------------------                      ------------------------

                                     IN                                         IN
[...]
                                    ---                                        ---
   EVAPOTRANSPIRATION =        2.9739D+08     EVAPOTRANSPIRATION =          40953.80
           STREAMFLOW =        1.7367D+08             STREAMFLOW =           6656.96
     GW BOUNDARY FLOW =        3735338.45       GW BOUNDARY FLOW =            650.80

   INFLOWS - OUTFLOWS =       -9737624.78     INFLOWS - OUTFLOWS =         -48261.56
             --------                                   --------

 TOTAL STORAGE CHANGE =       -9555658.13         STORAGE CHANGE =         -48287.81
       --------------                             --------------
         LAND SURFACE =         152692.44           LAND SURFACE =          -6818.24
            SOIL ZONE =         244695.53              SOIL ZONE =         -21038.21
     UNSATURATED ZONE =        6088994.42       UNSATURATED ZONE =         -26431.37
       SATURATED ZONE =       -1.6042D+07         SATURATED ZONE =           6000.01

 OVERALL BUDGET ERROR =        -181966.65           BUDGET ERROR =             26.26


  PERCENT DISCREPANCY =             -0.04    PERCENT DISCREPANCY =              0.05



1
 SUMMARY VOLUMETRIC BUDGET FOR GSFLOW 
 DATE: 07 30 1996              CUMULATIVE TIME STEP:    5782
 MODFLOW STRESS PERIOD      2     CURRENT TIME STEP:    5782     ITERATIONS:      14

 -----------------------------------------------------------------------------------

   CUMULATIVE VOLUMES               L**3   RATES FOR THIS TIME STEP           L**3/T
   ------------------                      ------------------------

                                     IN                                         IN
                                     --                                         --
        PRECIPITATION =        4.6511D+08          PRECIPITATION =                  
           STREAMFLOW =                               STREAMFLOW =                  
     GW BOUNDARY FLOW =                         GW BOUNDARY FLOW =                  


                                    OUT                                        OUT
                                    ---                                        ---
   EVAPOTRANSPIRATION =        2.9765D+08     EVAPOTRANSPIRATION =          30262.51
           STREAMFLOW =        1.7372D+08             STREAMFLOW =           6508.85
     GW BOUNDARY FLOW =        3739892.34       GW BOUNDARY FLOW =            650.38

   INFLOWS - OUTFLOWS =       -1.0002D+07     INFLOWS - OUTFLOWS =         -37421.74
             --------                                   --------

 TOTAL STORAGE CHANGE =       -9820618.52         STORAGE CHANGE =         -37444.81
       --------------                             --------------
         LAND SURFACE =         112099.96           LAND SURFACE =          -4929.06
            SOIL ZONE =         162259.06              SOIL ZONE =         -12359.96
     UNSATURATED ZONE =        5911393.79       UNSATURATED ZONE =         -24712.33
       SATURATED ZONE =       -1.6006D+07         SATURATED ZONE =           4556.55

 OVERALL BUDGET ERROR =        -181825.32           BUDGET ERROR =             23.08


  PERCENT DISCREPANCY =             -0.04    PERCENT DISCREPANCY =              0.06



1
 SUMMARY VOLUMETRIC BUDGET FOR GSFLOW 
 DATE: 08 06 1996              CUMULATIVE TIME STEP:    5789
 MODFLOW STRESS PERIOD      2     CURRENT TIME STEP:    5789     ITERATIONS:      13

 -----------------------------------------------------------------------------------

   CUMULATIVE VOLUMES               L**3   RATES FOR THIS TIME STEP           L**3/T
   ------------------                      ------------------------

                                     IN                                         IN
                                     --                                         --
        PRECIPITATION =        4.6511D+08          PRECIPITATION =                  
           STREAMFLOW =                               STREAMFLOW =                  
     GW BOUNDARY FLOW =                         GW BOUNDARY FLOW =                  


                                    OUT                                        OUT
                                    ---                                        ---
   EVAPOTRANSPIRATION =        2.9780D+08     EVAPOTRANSPIRATION =          18465.92
           STREAMFLOW =        1.7376D+08             STREAMFLOW =           6310.12
     GW BOUNDARY FLOW =        3744444.85       GW BOUNDARY FLOW =            650.32

   INFLOWS - OUTFLOWS =       -1.0202D+07     INFLOWS - OUTFLOWS =         -25426.37
             --------                                   --------

 TOTAL STORAGE CHANGE =       -1.0020D+07         STORAGE CHANGE =         -25452.63
       --------------                             --------------
         LAND SURFACE =          85235.58           LAND SURFACE =          -3353.13
            SOIL ZONE =         129337.69              SOIL ZONE =          -2219.63
     UNSATURATED ZONE =        5742437.85       UNSATURATED ZONE =         -23717.98
       SATURATED ZONE =       -1.5977D+07         SATURATED ZONE =           3838.10

 OVERALL BUDGET ERROR =        -181684.25           BUDGET ERROR =             26.27


  PERCENT DISCREPANCY =             -0.04    PERCENT DISCREPANCY =              0.10



1
 SUMMARY VOLUMETRIC BUDGET FOR GSFLOW 
 DATE: 08 13 1996              CUMULATIVE TIME STEP:    5796
 MODFLOW STRESS PERIOD      2     CURRENT TIME STEP:    5796     ITERATIONS:      14

 -----------------------------------------------------------------------------------

   CUMULATIVE VOLUMES               L**3   RATES FOR THIS TIME STEP           L**3/T
   ------------------                      ------------------------

                                     IN                                         IN
                                     --                                         --
        PRECIPITATION =        4.6531D+08          PRECIPITATION =          54456.73
           STREAMFLOW =                               STREAMFLOW =                  
     GW BOUNDARY FLOW =                         GW BOUNDARY FLOW =                  


                                    OUT                                        OUT
                                    ---                                        ---
   EVAPOTRANSPIRATION =        2.9799D+08     EVAPOTRANSPIRATION =          36314.47
           STREAMFLOW =        1.7381D+08             STREAMFLOW =           7501.46
     GW BOUNDARY FLOW =        3748996.68       GW BOUNDARY FLOW =            650.28

   INFLOWS - OUTFLOWS =       -1.0231D+07     INFLOWS - OUTFLOWS =           9990.51
             --------                                   --------

 TOTAL STORAGE CHANGE =       -1.0050D+07         STORAGE CHANGE =           9966.36
       --------------                             --------------
         LAND SURFACE =          92673.79           LAND SURFACE =          -3493.45
            SOIL ZONE =         229993.59              SOIL ZONE =          32948.19
     UNSATURATED ZONE =        5580474.87       UNSATURATED ZONE =         -22986.18
       SATURATED ZONE =       -1.5953D+07         SATURATED ZONE =           3497.79

 OVERALL BUDGET ERROR =        -181510.62           BUDGET ERROR =             24.15


  PERCENT DISCREPANCY =             -0.04    PERCENT DISCREPANCY =              0.04



1
 SUMMARY VOLUMETRIC BUDGET FOR GSFLOW 
 DATE: 08 20 1996              CUMULATIVE TIME STEP:    5803
 MODFLOW STRESS PERIOD      2     CURRENT TIME STEP:    5803     ITERATIONS:      17

 -----------------------------------------------------------------------------------

   CUMULATIVE VOLUMES               L**3   RATES FOR THIS TIME STEP           L**3/T
   ------------------                      ------------------------

                                     IN                                         IN
                                     --                                         --
        PRECIPITATION =        4.6531D+08          PRECIPITATION =                  
           STREAMFLOW =                               STREAMFLOW =                  
     GW BOUNDARY FLOW =                         GW BOUNDARY FLOW =                  


                                    OUT                                        OUT
                                    ---                                        ---
   EVAPOTRANSPIRATION =        2.9819D+08     EVAPOTRANSPIRATION =          18222.36
           STREAMFLOW =        1.7385D+08             STREAMFLOW =           6118.85
     GW BOUNDARY FLOW =        3753547.05       GW BOUNDARY FLOW =            649.88

   INFLOWS - OUTFLOWS =       -1.0482D+07     INFLOWS - OUTFLOWS =         -24991.09
             --------                                   --------

 TOTAL STORAGE CHANGE =       -1.0301D+07         STORAGE CHANGE =         -24998.68
       --------------                             --------------
         LAND SURFACE =          40251.07           LAND SURFACE =          -2042.85
            SOIL ZONE =         168092.58              SOIL ZONE =          -3595.20
     UNSATURATED ZONE =        5420215.43       UNSATURATED ZONE =         -22541.16
       SATURATED ZONE =       -1.5929D+07         SATURATED ZONE =           3180.53

 OVERALL BUDGET ERROR =        -181346.73           BUDGET ERROR =              7.59


  PERCENT DISCREPANCY =             -0.04    PERCENT DISCREPANCY =              0.03



1
 SUMMARY VOLUMETRIC BUDGET FOR GSFLOW 
 DATE: 08 27 1996              CUMULATIVE TIME STEP:    5810
 MODFLOW STRESS PERIOD      2     CURRENT TIME STEP:    5810     ITERATIONS:      13

 -----------------------------------------------------------------------------------

   CUMULATIVE VOLUMES               L**3   RATES FOR THIS TIME STEP           L**3/T
   ------------------                      ------------------------

                                     IN                                         IN
                                     --                                         --
        PRECIPITATION =        4.6531D+08          PRECIPITATION =                  
           STREAMFLOW =                               STREAMFLOW =                  
     GW BOUNDARY FLOW =                         GW BOUNDARY FLOW =                  


                                    OUT                                        OUT
                                    ---                                        ---
   EVAPOTRANSPIRATION =        2.9833D+08     EVAPOTRANSPIRATION =          14531.37
           STREAMFLOW =        1.7390D+08             STREAMFLOW =           5967.10
     GW BOUNDARY FLOW =        3758094.71       GW BOUNDARY FLOW =            649.51

   INFLOWS - OUTFLOWS =       -1.0667D+07     INFLOWS - OUTFLOWS =         -21147.97
             --------                                   --------

 TOTAL STORAGE CHANGE =       -1.0486D+07         STORAGE CHANGE =         -21174.93
       --------------                             --------------
         LAND SURFACE =          26150.57           LAND SURFACE =          -1370.47
            SOIL ZONE =         131745.74              SOIL ZONE =           -658.53
     UNSATURATED ZONE =        5267173.23       UNSATURATED ZONE =         -21211.03
       SATURATED ZONE =       -1.5911D+07         SATURATED ZONE =           2065.09

 OVERALL BUDGET ERROR =        -181176.94           BUDGET ERROR =             26.96


  PERCENT DISCREPANCY =             -0.04    PERCENT DISCREPANCY =              0.13



1
 SUMMARY VOLUMETRIC BUDGET FOR GSFLOW 
 DATE: 09 03 1996              CUMULATIVE TIME STEP:    5817
 MODFLOW STRESS PERIOD      2     CURRENT TIME STEP:    5817     ITERATIONS:      13

 -----------------------------------------------------------------------------------

   CUMULATIVE VOLUMES               L**3   RATES FOR THIS TIME STEP           L**3/T
   ------------------                      ------------------------

                                     IN                                         IN
                                     --                                         --
        PRECIPITATION =        4.6531D+08          PRECIPITATION =                  
           STREAMFLOW =                               STREAMFLOW =                  
     GW BOUNDARY FLOW =                         GW BOUNDARY FLOW =                  


                                    OUT                                        OUT
                                    ---                                        ---
   EVAPOTRANSPIRATION =        2.9843D+08     EVAPOTRANSPIRATION =          13424.26
           STREAMFLOW =        1.7394D+08             STREAMFLOW =           5865.90
     GW BOUNDARY FLOW =        3762639.59       GW BOUNDARY FLOW =            649.11

   INFLOWS - OUTFLOWS =       -1.0821D+07     INFLOWS - OUTFLOWS =         -19939.26
             --------                                   --------

 TOTAL STORAGE CHANGE =       -1.0640D+07         STORAGE CHANGE =         -19963.44
       --------------                             --------------
         LAND SURFACE =          17057.93           LAND SURFACE =          -1080.58
            SOIL ZONE =         120048.29              SOIL ZONE =             42.12
     UNSATURATED ZONE =        5124081.20       UNSATURATED ZONE =         -19857.64
       SATURATED ZONE =       -1.5901D+07         SATURATED ZONE =            932.66

 OVERALL BUDGET ERROR =        -181039.42           BUDGET ERROR =             24.18


  PERCENT DISCREPANCY =             -0.04    PERCENT DISCREPANCY =              0.12



1
 SUMMARY VOLUMETRIC BUDGET FOR GSFLOW 
 DATE: 09 10 1996              CUMULATIVE TIME STEP:    5824
 MODFLOW STRESS PERIOD      2     CURRENT TIME STEP:    5824     ITERATIONS:      18

 -----------------------------------------------------------------------------------

   CUMULATIVE VOLUMES               L**3   RATES FOR THIS TIME STEP           L**3/T
   ------------------                      ------------------------

                                     IN                                         IN
                                     --                                         --
        PRECIPITATION =        4.6531D+08          PRECIPITATION =                  
           STREAMFLOW =                               STREAMFLOW =                  
     GW BOUNDARY FLOW =                         GW BOUNDARY FLOW =                  


                                    OUT                                        OUT
                                    ---                                        ---
   EVAPOTRANSPIRATION =        2.9852D+08     EVAPOTRANSPIRATION =          12838.39
           STREAMFLOW =        1.7398D+08             STREAMFLOW =           5774.17
     GW BOUNDARY FLOW =        3767181.71       GW BOUNDARY FLOW =            648.71

   INFLOWS - OUTFLOWS =       -1.0949D+07     INFLOWS - OUTFLOWS =         -19261.27
             --------                                   --------

 TOTAL STORAGE CHANGE =       -1.0768D+07         STORAGE CHANGE =         -19268.64
       --------------                             --------------
         LAND SURFACE =          10644.28           LAND SURFACE =           -976.08
            SOIL ZONE =         129238.86              SOIL ZONE =            408.01
     UNSATURATED ZONE =        4985092.59       UNSATURATED ZONE =         -19746.40
       SATURATED ZONE =       -1.5893D+07         SATURATED ZONE =           1045.83

 OVERALL BUDGET ERROR =        -180965.83           BUDGET ERROR =              7.37


  PERCENT DISCREPANCY =             -0.04    PERCENT DISCREPANCY =              0.04



1
 SUMMARY VOLUMETRIC BUDGET FOR GSFLOW 
 DATE: 09 17 1996              CUMULATIVE TIME STEP:    5831
 MODFLOW STRESS PERIOD      2     CURRENT TIME STEP:    5831     ITERATIONS:      18

 -----------------------------------------------------------------------------------

   CUMULATIVE VOLUMES               L**3   RATES FOR THIS TIME STEP           L**3/T
   ------------------                      ------------------------

                                     IN                                         IN
                                     --                                         --
        PRECIPITATION =        4.6637D+08          PRECIPITATION =                  
           STREAMFLOW =                               STREAMFLOW =                  
     GW BOUNDARY FLOW =                         GW BOUNDARY FLOW =                  


                                    OUT                                        OUT
                                    ---                                        ---
   EVAPOTRANSPIRATION =        2.9872D+08     EVAPOTRANSPIRATION =          74571.48
           STREAMFLOW =        1.7404D+08             STREAMFLOW =           9621.82
     GW BOUNDARY FLOW =        3771723.15       GW BOUNDARY FLOW =            649.09

   INFLOWS - OUTFLOWS =       -1.0170D+07     INFLOWS - OUTFLOWS =         -84842.40
             --------                                   --------

 TOTAL STORAGE CHANGE =       -9988673.46         STORAGE CHANGE =         -84855.94
       --------------                             --------------
         LAND SURFACE =           6180.90           LAND SURFACE =         -34896.28
            SOIL ZONE =        1041388.32              SOIL ZONE =         -31438.51
     UNSATURATED ZONE =        4850051.85       UNSATURATED ZONE =         -19070.35
       SATURATED ZONE =       -1.5886D+07         SATURATED ZONE =            549.21

 OVERALL BUDGET ERROR =        -180895.19           BUDGET ERROR =             13.55


  PERCENT DISCREPANCY =             -0.04    PERCENT DISCREPANCY =              0.02



1
 SUMMARY VOLUMETRIC BUDGET FOR GSFLOW 
 DATE: 09 24 1996              CUMULATIVE TIME STEP:    5838
 MODFLOW STRESS PERIOD      2     CURRENT TIME STEP:    5838     ITERATIONS:      18

 -----------------------------------------------------------------------------------

   CUMULATIVE VOLUMES               L**3   RATES FOR THIS TIME STEP           L**3/T
   ------------------                      ------------------------

                                     IN                                         IN
                                     --                                         --
        PRECIPITATION =        4.6637D+08          PRECIPITATION =                  
           STREAMFLOW =                               STREAMFLOW =                  
     GW BOUNDARY FLOW =                         GW BOUNDARY FLOW =                  


                                    OUT                                        OUT
                                    ---                                        ---
   EVAPOTRANSPIRATION =        2.9924D+08     EVAPOTRANSPIRATION =          50442.26
           STREAMFLOW =        1.7409D+08             STREAMFLOW =           6067.50
     GW BOUNDARY FLOW =        3776262.76       GW BOUNDARY FLOW =            648.19

   INFLOWS - OUTFLOWS =       -1.0739D+07     INFLOWS - OUTFLOWS =         -57157.95
             --------                                   --------

 TOTAL STORAGE CHANGE =       -1.0558D+07         STORAGE CHANGE =         -57170.91
       --------------                             --------------
         LAND SURFACE =           2675.39           LAND SURFACE =           -481.80
            SOIL ZONE =         604828.24              SOIL ZONE =         -38347.30
     UNSATURATED ZONE =        4718680.53       UNSATURATED ZONE =         -18517.30
       SATURATED ZONE =       -1.5884D+07         SATURATED ZONE =            175.48

 OVERALL BUDGET ERROR =        -180807.16           BUDGET ERROR =             12.96


  PERCENT DISCREPANCY =             -0.04    PERCENT DISCREPANCY =              0.02



