1
 SUMMARY VOLUMETRIC BUDGET FOR GSFLOW 
 DATE: 10 07 1980              CUMULATIVE TIME STEP:       7
 MODFLOW STRESS PERIOD      2     CURRENT TIME STEP:       7     ITERATIONS:       6

 -----------------------------------------------------------------------------------

   CUMULATIVE VOLUMES               L**3   RATES FOR THIS TIME STEP           L**3/T
   ------------------                      ------------------------

                                     IN                                         IN
                                     --                                         --
        PRECIPITATION =                            PRECIPITATION =                  
           STREAMFLOW =                               STREAMFLOW =                  
     GW BOUNDARY FLOW =                         GW BOUNDARY FLOW =                  


                                    OUT                                        OUT
                                    ---                                        ---
   EVAPOTRANSPIRATION =          63502.38     EVAPOTRANSPIRATION =           9679.51
           STREAMFLOW =          42957.63             STREAMFLOW =           6065.77
     GW BOUNDARY FLOW =           4541.44       GW BOUNDARY FLOW =            648.70

   INFLOWS - OUTFLOWS =        -111001.44     INFLOWS - OUTFLOWS =         -16393.99
             --------                                   --------

 TOTAL STORAGE CHANGE =        -110545.66         STORAGE CHANGE =         -16325.67
       --------------                             --------------
         LAND SURFACE =                             LAND SURFACE =                  
            SOIL ZONE =          47014.67              SOIL ZONE =           6016.91
     UNSATURATED ZONE =        -144777.37       UNSATURATED ZONE =         -20360.11
       SATURATED ZONE =         -12782.96         SATURATED ZONE =          -1982.46

 OVERALL BUDGET ERROR =           -455.78           BUDGET ERROR =            -68.32


  PERCENT DISCREPANCY =             -0.41    PERCENT DISCREPANCY =             -0.42



1
 SUMMARY VOLUMETRIC BUDGET FOR GSFLOW 
 DATE: 10 14 1980              CUMULATIVE TIME STEP:      14
 MODFLOW STRESS PERIOD      2     CURRENT TIME STEP:      14     ITERATIONS:       6

 -----------------------------------------------------------------------------------

   CUMULATIVE VOLUMES               L**3   RATES FOR THIS TIME STEP           L**3/T
   ------------------                      ------------------------

                                     IN                                         IN
                                     --                                         --
        PRECIPITATION =         650780.39          PRECIPITATION =         164754.68
           STREAMFLOW =                               STREAMFLOW =                  
     GW BOUNDARY FLOW =                         GW BOUNDARY FLOW =                  


                                    OUT                                        OUT
                                    ---                                        ---
   EVAPOTRANSPIRATION =         147519.26     EVAPOTRANSPIRATION =           7886.70
           STREAMFLOW =          92677.73             STREAMFLOW =           7494.70
     GW BOUNDARY FLOW =           9082.78       GW BOUNDARY FLOW =            648.89

   INFLOWS - OUTFLOWS =         401500.62     INFLOWS - OUTFLOWS =         148724.39
             --------                                   --------

 TOTAL STORAGE CHANGE =         402471.14         STORAGE CHANGE =         148798.38
       --------------                             --------------
         LAND SURFACE =         277680.20           LAND SURFACE =         136619.69
            SOIL ZONE =         436917.79              SOIL ZONE =          34196.55
     UNSATURATED ZONE =        -284452.37       UNSATURATED ZONE =         -19623.49
       SATURATED ZONE =         -27674.48         SATURATED ZONE =          -2394.36

 OVERALL BUDGET ERROR =           -970.52           BUDGET ERROR =            -74.00


  PERCENT DISCREPANCY =             -0.15    PERCENT DISCREPANCY =             -0.04



1
 SUMMARY VOLUMETRIC BUDGET FOR GSFLOW 
 DATE: 10 21 1980              CUMULATIVE TIME STEP:      21
 MODFLOW STRESS PERIOD      2     CURRENT TIME STEP:      21     ITERATIONS:       6

 -----------------------------------------------------------------------------------

   CUMULATIVE VOLUMES               L**3   RATES FOR THIS TIME STEP           L**3/T
   ------------------                      ------------------------

                                     IN                                         IN
                                     --                                         --
        PRECIPITATION =         733156.23          PRECIPITATION =                  
           STREAMFLOW =                               STREAMFLOW =                  
     GW BOUNDARY FLOW =                         GW BOUNDARY FLOW =                  


                                    OUT                                        OUT
                                    ---                                        ---
   EVAPOTRANSPIRATION =         373107.52     EVAPOTRANSPIRATION =          36446.04
           STREAMFLOW =         144890.95             STREAMFLOW =           7105.98
     GW BOUNDARY FLOW =          13624.56       GW BOUNDARY FLOW =            648.77

   INFLOWS - OUTFLOWS =         201533.20     INFLOWS - OUTFLOWS =         -44200.79
             --------                                   --------

 TOTAL STORAGE CHANGE =         203014.42         STORAGE CHANGE =         -44120.13
       --------------                             --------------
         LAND SURFACE =           2252.39           LAND SURFACE =          -3155.26
            SOIL ZONE =         665729.19              SOIL ZONE =         -19173.04
     UNSATURATED ZONE =        -418622.14       UNSATURATED ZONE =         -18801.02
       SATURATED ZONE =         -46345.02         SATURATED ZONE =          -2990.81

 OVERALL BUDGET ERROR =          -1481.22           BUDGET ERROR =            -80.66


  PERCENT DISCREPANCY =             -0.20    PERCENT DISCREPANCY =             -0.18



1
 SUMMARY VOLUMETRIC BUDGET FOR GSFLOW 
 DATE: 10 28 1980              CUMULATIVE TIME STEP:      28
 MODFLOW STRESS PERIOD      2     CURRENT TIME STEP:      28     ITERATIONS:       6

 -----------------------------------------------------------------------------------

   CUMULATIVE VOLUMES               L**3   RATES FOR THIS TIME STEP           L**3/T
   ------------------                      ------------------------

                                     IN                                         IN
                                     --                                         --
        PRECIPITATION =        1070899.96          PRECIPITATION =                  
           STREAMFLOW =                               STREAMFLOW =                  
     GW BOUNDARY FLOW =                         GW BOUNDARY FLOW =                  


                                    OUT                                        OUT
                                    ---                                        ---
   EVAPOTRANSPIRATION =         550295.54     EVAPOTRANSPIRATION =          23594.69
           STREAMFLOW =         199834.81             STREAMFLOW =           7989.32
     GW BOUNDARY FLOW =          18165.91       GW BOUNDARY FLOW =            648.81

   INFLOWS - OUTFLOWS =         302603.70     INFLOWS - OUTFLOWS =         -32232.82
             --------                                   --------

 TOTAL STORAGE CHANGE =         304656.54         STORAGE CHANGE =         -32145.86
       --------------                             --------------
         LAND SURFACE =          24622.16           LAND SURFACE =         -30947.62
            SOIL ZONE =         896176.62              SOIL ZONE =          20269.33
     UNSATURATED ZONE =        -547225.26       UNSATURATED ZONE =         -17994.12
       SATURATED ZONE =         -68916.98         SATURATED ZONE =          -3473.45

 OVERALL BUDGET ERROR =          -2052.84           BUDGET ERROR =            -86.95


  PERCENT DISCREPANCY =             -0.19    PERCENT DISCREPANCY =             -0.27



1
 SUMMARY VOLUMETRIC BUDGET FOR GSFLOW 
 DATE: 11 04 1980              CUMULATIVE TIME STEP:      35
 MODFLOW STRESS PERIOD      2     CURRENT TIME STEP:      35     ITERATIONS:       8

 -----------------------------------------------------------------------------------

   CUMULATIVE VOLUMES               L**3   RATES FOR THIS TIME STEP           L**3/T
   ------------------                      ------------------------

                                     IN                                         IN
                                     --                                         --
        PRECIPITATION =        1070899.96          PRECIPITATION =                  
           STREAMFLOW =                               STREAMFLOW =                  
     GW BOUNDARY FLOW =                         GW BOUNDARY FLOW =                  


                                    OUT                                        OUT
                                    ---                                        ---
   EVAPOTRANSPIRATION =         825644.50     EVAPOTRANSPIRATION =          34462.00
           STREAMFLOW =         252302.68             STREAMFLOW =           7018.30
     GW BOUNDARY FLOW =          22706.92       GW BOUNDARY FLOW =            648.64

   INFLOWS - OUTFLOWS =         -29754.13     INFLOWS - OUTFLOWS =         -42128.95
             --------                                   --------

 TOTAL STORAGE CHANGE =         -27211.18         STORAGE CHANGE =         -42066.92
       --------------                             --------------
         LAND SURFACE =                             LAND SURFACE =                  
            SOIL ZONE =         739545.75              SOIL ZONE =         -20540.94
     UNSATURATED ZONE =        -670653.07       UNSATURATED ZONE =         -17361.09
       SATURATED ZONE =         -96103.86         SATURATED ZONE =          -4164.90

 OVERALL BUDGET ERROR =          -2542.96           BUDGET ERROR =            -62.02


  PERCENT DISCREPANCY =             -0.23    PERCENT DISCREPANCY =             -0.15



1
 SUMMARY VOLUMETRIC BUDGET FOR GSFLOW 
 DATE: 11 11 1980              CUMULATIVE TIME STEP:      42
 MODFLOW STRESS PERIOD      2     CURRENT TIME STEP:      42     ITERATIONS:       7

 -----------------------------------------------------------------------------------

   CUMULATIVE VOLUMES               L**3   RATES FOR THIS TIME STEP           L**3/T
   ------------------                      ------------------------

                                     IN                                         IN
                                     --                                         --
        PRECIPITATION =        1573759.34          PRECIPITATION =         255182.10
           STREAMFLOW =                               STREAMFLOW =                  
     GW BOUNDARY FLOW =                         GW BOUNDARY FLOW =                  


                                    OUT                                        OUT
                                    ---                                        ---
   EVAPOTRANSPIRATION =        1024608.29     EVAPOTRANSPIRATION =          14644.17
           STREAMFLOW =         308279.04             STREAMFLOW =          10773.57
     GW BOUNDARY FLOW =          27247.64       GW BOUNDARY FLOW =            648.84

   INFLOWS - OUTFLOWS =         213624.37     INFLOWS - OUTFLOWS =         229115.52
             --------                                   --------

 TOTAL STORAGE CHANGE =         216713.03         STORAGE CHANGE =         229180.36
       --------------                             --------------
         LAND SURFACE =          78611.70           LAND SURFACE =          76658.21
            SOIL ZONE =        1053407.14              SOIL ZONE =         173145.66
     UNSATURATED ZONE =        -789255.25       UNSATURATED ZONE =         -16535.16
       SATURATED ZONE =        -126050.56         SATURATED ZONE =          -4088.35

 OVERALL BUDGET ERROR =          -3088.65           BUDGET ERROR =            -64.85


  PERCENT DISCREPANCY =             -0.20    PERCENT DISCREPANCY =             -0.03



1
 SUMMARY VOLUMETRIC BUDGET FOR GSFLOW 
 DATE: 11 18 1980              CUMULATIVE TIME STEP:      49
 MODFLOW STRESS PERIOD      2     CURRENT TIME STEP:      49     ITERATIONS:       7

 -----------------------------------------------------------------------------------

   CUMULATIVE VOLUMES               L**3   RATES FOR THIS TIME STEP           L**3/T
   ------------------                      ------------------------

                                     IN                                         IN
                                     --                                         --
        PRECIPITATION =        1573759.34          PRECIPITATION =                  
           STREAMFLOW =                               STREAMFLOW =                  
     GW BOUNDARY FLOW =                         GW BOUNDARY FLOW =                  


                                    OUT                                        OUT
                                    ---                                        ---
   EVAPOTRANSPIRATION =        1113099.71     EVAPOTRANSPIRATION =          16687.26
           STREAMFLOW =         371220.60             STREAMFLOW =           9364.84
     GW BOUNDARY FLOW =          31789.52       GW BOUNDARY FLOW =            648.86

   INFLOWS - OUTFLOWS =          57649.51     INFLOWS - OUTFLOWS =         -26700.96
             --------                                   --------

 TOTAL STORAGE CHANGE =          61346.28         STORAGE CHANGE =         -26624.97
       --------------                             --------------
         LAND SURFACE =           8650.47           LAND SURFACE =          -6201.94
            SOIL ZONE =        1114561.76              SOIL ZONE =            417.27
     UNSATURATED ZONE =        -903157.87       UNSATURATED ZONE =         -16016.23
       SATURATED ZONE =        -158708.08         SATURATED ZONE =          -4824.06

 OVERALL BUDGET ERROR =          -3696.77           BUDGET ERROR =            -75.99


  PERCENT DISCREPANCY =             -0.23    PERCENT DISCREPANCY =             -0.29



1
 SUMMARY VOLUMETRIC BUDGET FOR GSFLOW 
 DATE: 11 25 1980              CUMULATIVE TIME STEP:      56
 MODFLOW STRESS PERIOD      2     CURRENT TIME STEP:      56     ITERATIONS:       8

 -----------------------------------------------------------------------------------

   CUMULATIVE VOLUMES               L**3   RATES FOR THIS TIME STEP           L**3/T
   ------------------                      ------------------------

                                     IN                                         IN
                                     --                                         --
        PRECIPITATION =        1648813.76          PRECIPITATION =                  
           STREAMFLOW =                               STREAMFLOW =                  
     GW BOUNDARY FLOW =                         GW BOUNDARY FLOW =                  


                                    OUT                                        OUT
                                    ---                                        ---
   EVAPOTRANSPIRATION =        1185742.58     EVAPOTRANSPIRATION =           8792.39
           STREAMFLOW =         438524.79             STREAMFLOW =           9976.17
     GW BOUNDARY FLOW =          36331.82       GW BOUNDARY FLOW =            648.94

   INFLOWS - OUTFLOWS =         -11785.42     INFLOWS - OUTFLOWS =         -19417.50
             --------                                   --------

 TOTAL STORAGE CHANGE =          -7554.38         STORAGE CHANGE =         -19352.80
       --------------                             --------------
         LAND SURFACE =          55166.56           LAND SURFACE =          -8744.72
            SOIL ZONE =        1144799.14              SOIL ZONE =          10127.49
     UNSATURATED ZONE =       -1012779.27       UNSATURATED ZONE =         -15404.83
       SATURATED ZONE =        -194740.82         SATURATED ZONE =          -5330.74

 OVERALL BUDGET ERROR =          -4231.04           BUDGET ERROR =            -64.69


  PERCENT DISCREPANCY =             -0.26    PERCENT DISCREPANCY =             -0.33



1
 SUMMARY VOLUMETRIC BUDGET FOR GSFLOW 
 DATE: 12 02 1980              CUMULATIVE TIME STEP:      63
 MODFLOW STRESS PERIOD      2     CURRENT TIME STEP:      63     ITERATIONS:       8

 -----------------------------------------------------------------------------------

   CUMULATIVE VOLUMES               L**3   RATES FOR THIS TIME STEP           L**3/T
   ------------------                      ------------------------

                                     IN                                         IN
                                     --                                         --
        PRECIPITATION =        2076620.74          PRECIPITATION =                  
           STREAMFLOW =                               STREAMFLOW =                  
     GW BOUNDARY FLOW =                         GW BOUNDARY FLOW =                  


                                    OUT                                        OUT
                                    ---                                        ---
   EVAPOTRANSPIRATION =        1375203.68     EVAPOTRANSPIRATION =          33951.66
           STREAMFLOW =         523914.45             STREAMFLOW =          15367.31
     GW BOUNDARY FLOW =          40875.80       GW BOUNDARY FLOW =            649.45

   INFLOWS - OUTFLOWS =         136626.80     INFLOWS - OUTFLOWS =         -49968.42
             --------                                   --------

 TOTAL STORAGE CHANGE =         141300.27         STORAGE CHANGE =         -49916.71
       --------------                             --------------
         LAND SURFACE =         152558.40           LAND SURFACE =         -75202.38
            SOIL ZONE =        1333557.95              SOIL ZONE =          42838.10
     UNSATURATED ZONE =       -1114204.05       UNSATURATED ZONE =         -12954.84
       SATURATED ZONE =        -230612.03         SATURATED ZONE =          -4597.59

 OVERALL BUDGET ERROR =          -4673.47           BUDGET ERROR =            -51.71


  PERCENT DISCREPANCY =             -0.22    PERCENT DISCREPANCY =             -0.10



1
 SUMMARY VOLUMETRIC BUDGET FOR GSFLOW 
 DATE: 12 09 1980              CUMULATIVE TIME STEP:      70
 MODFLOW STRESS PERIOD      2     CURRENT TIME STEP:      70     ITERATIONS:       8

 -----------------------------------------------------------------------------------

   CUMULATIVE VOLUMES               L**3   RATES FOR THIS TIME STEP           L**3/T
   ------------------                      ------------------------

                                     IN                                         IN
                                     --                                         --
        PRECIPITATION =        4284363.13          PRECIPITATION =                  
           STREAMFLOW =                               STREAMFLOW =                  
     GW BOUNDARY FLOW =                         GW BOUNDARY FLOW =                  


                                    OUT                                        OUT
                                    ---                                        ---
   EVAPOTRANSPIRATION =        1398622.32     EVAPOTRANSPIRATION =           2942.37
           STREAMFLOW =         624559.98             STREAMFLOW =          14710.28
     GW BOUNDARY FLOW =          45422.80       GW BOUNDARY FLOW =            649.67

   INFLOWS - OUTFLOWS =        2215758.03     INFLOWS - OUTFLOWS =         -18302.32
             --------                                   --------

 TOTAL STORAGE CHANGE =        2220890.31         STORAGE CHANGE =         -18250.48
       --------------                             --------------
         LAND SURFACE =        2335225.13           LAND SURFACE =          -2942.37
            SOIL ZONE =        1367910.26              SOIL ZONE =           4916.95
     UNSATURATED ZONE =       -1212490.79       UNSATURATED ZONE =         -14224.57
       SATURATED ZONE =        -269754.29         SATURATED ZONE =          -6000.49

 OVERALL BUDGET ERROR =          -5132.29           BUDGET ERROR =            -51.84


  PERCENT DISCREPANCY =             -0.12    PERCENT DISCREPANCY =             -0.28



1
 SUMMARY VOLUMETRIC BUDGET FOR GSFLOW 
 DATE: 12 16 1980              CUMULATIVE TIME STEP:      77
 MODFLOW STRESS PERIOD      2     CURRENT TIME STEP:      77     ITERATIONS:       7

 -----------------------------------------------------------------------------------

   CUMULATIVE VOLUMES               L**3   RATES FOR THIS TIME STEP           L**3/T
   ------------------                      ------------------------

                                     IN                                         IN
                                     --                                         --
        PRECIPITATION =        4284363.13          PRECIPITATION =                  
           STREAMFLOW =                               STREAMFLOW =                  
     GW BOUNDARY FLOW =                         GW BOUNDARY FLOW =                  


                                    OUT                                        OUT
                                    ---                                        ---
   EVAPOTRANSPIRATION =        1540616.47     EVAPOTRANSPIRATION =          33883.45
           STREAMFLOW =         746415.29             STREAMFLOW =          25215.60
     GW BOUNDARY FLOW =          49971.61       GW BOUNDARY FLOW =            650.27

   INFLOWS - OUTFLOWS =        1947359.76     INFLOWS - OUTFLOWS =         -59749.32
             --------                                   --------

 TOTAL STORAGE CHANGE =        1952923.86         STORAGE CHANGE =         -59684.50
       --------------                             --------------
         LAND SURFACE =        2023963.99           LAND SURFACE =        -129017.63
            SOIL ZONE =        1541233.94              SOIL ZONE =          82702.33
     UNSATURATED ZONE =       -1302225.81       UNSATURATED ZONE =          -8985.83
       SATURATED ZONE =        -310048.26         SATURATED ZONE =          -4383.37

 OVERALL BUDGET ERROR =          -5564.11           BUDGET ERROR =            -64.82


  PERCENT DISCREPANCY =             -0.13    PERCENT DISCREPANCY =             -0.11



1
 SUMMARY VOLUMETRIC BUDGET FOR GSFLOW 
 DATE: 12 23 1980              CUMULATIVE TIME STEP:      84
 MODFLOW STRESS PERIOD      2     CURRENT TIME STEP:      84     ITERATIONS:       9

 -----------------------------------------------------------------------------------

   CUMULATIVE VOLUMES               L**3   RATES FOR THIS TIME STEP           L**3/T
   ------------------                      ------------------------

                                     IN                                         IN
                                     --                                         --
        PRECIPITATION =        4516755.31          PRECIPITATION =                  
           STREAMFLOW =                               STREAMFLOW =                  
     GW BOUNDARY FLOW =                         GW BOUNDARY FLOW =                  


                                    OUT                                        OUT
                                    ---                                        ---
   EVAPOTRANSPIRATION =        1746657.92     EVAPOTRANSPIRATION =          35140.80
           STREAMFLOW =         975451.98             STREAMFLOW =          30478.87
     GW BOUNDARY FLOW =          54532.14       GW BOUNDARY FLOW =            651.94

   INFLOWS - OUTFLOWS =        1740113.27     INFLOWS - OUTFLOWS =         -66271.61
             --------                                   --------

 TOTAL STORAGE CHANGE =        1745996.37         STORAGE CHANGE =         -66233.34
       --------------                             --------------
         LAND SURFACE =        1433308.52           LAND SURFACE =         -48192.94
            SOIL ZONE =        1993516.47              SOIL ZONE =          -8131.44
     UNSATURATED ZONE =       -1342652.80       UNSATURATED ZONE =          -5276.00
       SATURATED ZONE =        -338175.81         SATURATED ZONE =          -4632.96

 OVERALL BUDGET ERROR =          -5883.10           BUDGET ERROR =            -38.27


  PERCENT DISCREPANCY =             -0.13    PERCENT DISCREPANCY =             -0.06



1
 SUMMARY VOLUMETRIC BUDGET FOR GSFLOW 
 DATE: 12 30 1980              CUMULATIVE TIME STEP:      91
 MODFLOW STRESS PERIOD      2     CURRENT TIME STEP:      91     ITERATIONS:      11

 -----------------------------------------------------------------------------------

   CUMULATIVE VOLUMES               L**3   RATES FOR THIS TIME STEP           L**3/T
   ------------------                      ------------------------

                                     IN                                         IN
                                     --                                         --
        PRECIPITATION =        4516755.31          PRECIPITATION =                  
           STREAMFLOW =                               STREAMFLOW =                  
     GW BOUNDARY FLOW =                         GW BOUNDARY FLOW =                  


                                    OUT                                        OUT
                                    ---                                        ---
   EVAPOTRANSPIRATION =        2107284.28     EVAPOTRANSPIRATION =          45887.39
           STREAMFLOW =        1224083.31             STREAMFLOW =          27636.23
     GW BOUNDARY FLOW =          59099.13       GW BOUNDARY FLOW =            652.41

   INFLOWS - OUTFLOWS =        1126288.59     INFLOWS - OUTFLOWS =         -74176.03
             --------                                   --------

 TOTAL STORAGE CHANGE =        1132342.98         STORAGE CHANGE =         -74147.13
       --------------                             --------------
         LAND SURFACE =         641176.37           LAND SURFACE =         -40371.69
            SOIL ZONE =        2204227.14              SOIL ZONE =         -24670.09
     UNSATURATED ZONE =       -1350200.70       UNSATURATED ZONE =          -4993.34
       SATURATED ZONE =        -362859.83         SATURATED ZONE =          -4112.00

 OVERALL BUDGET ERROR =          -6054.39           BUDGET ERROR =            -28.90


  PERCENT DISCREPANCY =             -0.13    PERCENT DISCREPANCY =             -0.04



1
 SUMMARY VOLUMETRIC BUDGET FOR GSFLOW 
 DATE: 01 06 1981              CUMULATIVE TIME STEP:      98
 MODFLOW STRESS PERIOD      2     CURRENT TIME STEP:      98     ITERATIONS:       8

 -----------------------------------------------------------------------------------

   CUMULATIVE VOLUMES               L**3   RATES FOR THIS TIME STEP           L**3/T
   ------------------                      ------------------------

                                     IN                                         IN
                                     --                                         --
        PRECIPITATION =        5004445.82          PRECIPITATION =                  
           STREAMFLOW =                               STREAMFLOW =                  
     GW BOUNDARY FLOW =                         GW BOUNDARY FLOW =                  


                                    OUT                                        OUT
                                    ---                                        ---
   EVAPOTRANSPIRATION =        2335206.42     EVAPOTRANSPIRATION =          21388.47
           STREAMFLOW =        1379688.76             STREAMFLOW =          21364.63
     GW BOUNDARY FLOW =          63660.90       GW BOUNDARY FLOW =            651.28

   INFLOWS - OUTFLOWS =        1225889.73     INFLOWS - OUTFLOWS =         -43404.38
             --------                                   --------

 TOTAL STORAGE CHANGE =        1232156.28         STORAGE CHANGE =         -43367.15
       --------------                             --------------
         LAND SURFACE =         837061.68           LAND SURFACE =         -30417.13
            SOIL ZONE =        2210261.17              SOIL ZONE =           2615.39
     UNSATURATED ZONE =       -1415110.43       UNSATURATED ZONE =          -9927.39
       SATURATED ZONE =        -400056.14         SATURATED ZONE =          -5638.01

 OVERALL BUDGET ERROR =          -6266.55           BUDGET ERROR =            -37.23


  PERCENT DISCREPANCY =             -0.13    PERCENT DISCREPANCY =             -0.09



1
 SUMMARY VOLUMETRIC BUDGET FOR GSFLOW 
 DATE: 01 13 1981              CUMULATIVE TIME STEP:     105
 MODFLOW STRESS PERIOD      2     CURRENT TIME STEP:     105     ITERATIONS:       7

 -----------------------------------------------------------------------------------

   CUMULATIVE VOLUMES               L**3   RATES FOR THIS TIME STEP           L**3/T
   ------------------                      ------------------------

                                     IN                                         IN
                                     --                                         --
        PRECIPITATION =        5004445.82          PRECIPITATION =                  
           STREAMFLOW =                               STREAMFLOW =                  
     GW BOUNDARY FLOW =                         GW BOUNDARY FLOW =                  


                                    OUT                                        OUT
                                    ---                                        ---
   EVAPOTRANSPIRATION =        2552718.70     EVAPOTRANSPIRATION =          44453.51
           STREAMFLOW =        1528620.53             STREAMFLOW =          20147.73
     GW BOUNDARY FLOW =          68218.18       GW BOUNDARY FLOW =            650.85

   INFLOWS - OUTFLOWS =         854888.41     INFLOWS - OUTFLOWS =         -65252.09
             --------                                   --------

 TOTAL STORAGE CHANGE =         861523.67         STORAGE CHANGE =         -65187.77
       --------------                             --------------
         LAND SURFACE =         626703.68           LAND SURFACE =         -38989.03
            SOIL ZONE =        2156526.00              SOIL ZONE =         -10598.04
     UNSATURATED ZONE =       -1478925.50       UNSATURATED ZONE =          -9118.96
       SATURATED ZONE =        -442780.50         SATURATED ZONE =          -6481.74

 OVERALL BUDGET ERROR =          -6635.26           BUDGET ERROR =            -64.32


  PERCENT DISCREPANCY =             -0.13    PERCENT DISCREPANCY =             -0.10



1
 SUMMARY VOLUMETRIC BUDGET FOR GSFLOW 
 DATE: 01 20 1981              CUMULATIVE TIME STEP:     112
 MODFLOW STRESS PERIOD      2     CURRENT TIME STEP:     112     ITERATIONS:       7

 -----------------------------------------------------------------------------------

   CUMULATIVE VOLUMES               L**3   RATES FOR THIS TIME STEP           L**3/T
   ------------------                      ------------------------

                                     IN                                         IN
                                     --                                         --
        PRECIPITATION =        5170468.48          PRECIPITATION =          41503.16
           STREAMFLOW =                               STREAMFLOW =                  
     GW BOUNDARY FLOW =                         GW BOUNDARY FLOW =                  


                                    OUT                                        OUT
                                    ---                                        ---
   EVAPOTRANSPIRATION =        2833964.14     EVAPOTRANSPIRATION =          34835.33
           STREAMFLOW =        1671192.51             STREAMFLOW =          20265.05
     GW BOUNDARY FLOW =          72773.11       GW BOUNDARY FLOW =            650.66

   INFLOWS - OUTFLOWS =         592538.72     INFLOWS - OUTFLOWS =         -14247.88
             --------                                   --------

 TOTAL STORAGE CHANGE =         599499.23         STORAGE CHANGE =         -14195.96
       --------------                             --------------
         LAND SURFACE =         436309.37           LAND SURFACE =           4324.83
            SOIL ZONE =        2159451.21              SOIL ZONE =         -10245.51
     UNSATURATED ZONE =       -1509551.72       UNSATURATED ZONE =          -1781.00
       SATURATED ZONE =        -486709.63         SATURATED ZONE =          -6494.28

 OVERALL BUDGET ERROR =          -6960.51           BUDGET ERROR =            -51.92


  PERCENT DISCREPANCY =             -0.13    PERCENT DISCREPANCY =             -0.09



1
 SUMMARY VOLUMETRIC BUDGET FOR GSFLOW 
 DATE: 01 27 1981              CUMULATIVE TIME STEP:     119
 MODFLOW STRESS PERIOD      2     CURRENT TIME STEP:     119     ITERATIONS:       9

 -----------------------------------------------------------------------------------

   CUMULATIVE VOLUMES               L**3   RATES FOR THIS TIME STEP           L**3/T
   ------------------                      ------------------------

                                     IN                                         IN
                                     --                                         --
        PRECIPITATION =        8646542.90          PRECIPITATION =        2936504.96
           STREAMFLOW =                               STREAMFLOW =                  
     GW BOUNDARY FLOW =                         GW BOUNDARY FLOW =                  


                                    OUT                                        OUT
                                    ---                                        ---
   EVAPOTRANSPIRATION =        3067729.99     EVAPOTRANSPIRATION =          13121.10
           STREAMFLOW =        1817585.31             STREAMFLOW =          18746.99
     GW BOUNDARY FLOW =          77327.59       GW BOUNDARY FLOW =            650.46

   INFLOWS - OUTFLOWS =        3683900.02     INFLOWS - OUTFLOWS =        2903986.42
             --------                                   --------

 TOTAL STORAGE CHANGE =        3691039.89         STORAGE CHANGE =        2904010.56
       --------------                             --------------
         LAND SURFACE =        3540208.69           LAND SURFACE =        2923350.57
            SOIL ZONE =        2180485.50              SOIL ZONE =          -7829.41
     UNSATURATED ZONE =       -1498408.86       UNSATURATED ZONE =          -4760.25
       SATURATED ZONE =        -531245.43         SATURATED ZONE =          -6750.35

 OVERALL BUDGET ERROR =          -7139.88           BUDGET ERROR =            -24.14


  PERCENT DISCREPANCY =             -0.08    PERCENT DISCREPANCY =             -0.00



1
 SUMMARY VOLUMETRIC BUDGET FOR GSFLOW 
 DATE: 02 03 1981              CUMULATIVE TIME STEP:     126
 MODFLOW STRESS PERIOD      2     CURRENT TIME STEP:     126     ITERATIONS:       9

 -----------------------------------------------------------------------------------

   CUMULATIVE VOLUMES               L**3   RATES FOR THIS TIME STEP           L**3/T
   ------------------                      ------------------------

                                     IN                                         IN
                                     --                                         --
        PRECIPITATION =        1.1739D+07          PRECIPITATION =                  
           STREAMFLOW =                               STREAMFLOW =                  
     GW BOUNDARY FLOW =                         GW BOUNDARY FLOW =                  


                                    OUT                                        OUT
                                    ---                                        ---
   EVAPOTRANSPIRATION =        3104242.88     EVAPOTRANSPIRATION =           6975.55
           STREAMFLOW =        1944592.73             STREAMFLOW =          18014.56
     GW BOUNDARY FLOW =          81879.76       GW BOUNDARY FLOW =            650.26

   INFLOWS - OUTFLOWS =        6607982.41     INFLOWS - OUTFLOWS =         -25640.37
             --------                                   --------

 TOTAL STORAGE CHANGE =        6615274.13         STORAGE CHANGE =         -25622.80
       --------------                             --------------
         LAND SURFACE =        6595850.65           LAND SURFACE =          -6975.55
            SOIL ZONE =        2169045.90              SOIL ZONE =            422.18
     UNSATURATED ZONE =       -1567284.32       UNSATURATED ZONE =         -11421.21
       SATURATED ZONE =        -582338.10         SATURATED ZONE =          -7648.21

 OVERALL BUDGET ERROR =          -7291.72           BUDGET ERROR =            -17.57


  PERCENT DISCREPANCY =             -0.06    PERCENT DISCREPANCY =             -0.07



1
 SUMMARY VOLUMETRIC BUDGET FOR GSFLOW 
 DATE: 02 10 1981              CUMULATIVE TIME STEP:     133
 MODFLOW STRESS PERIOD      2     CURRENT TIME STEP:     133     ITERATIONS:       8

 -----------------------------------------------------------------------------------

   CUMULATIVE VOLUMES               L**3   RATES FOR THIS TIME STEP           L**3/T
   ------------------                      ------------------------

                                     IN                                         IN
                                     --                                         --
        PRECIPITATION =        1.1838D+07          PRECIPITATION =                  
           STREAMFLOW =                               STREAMFLOW =                  
     GW BOUNDARY FLOW =                         GW BOUNDARY FLOW =                  


                                    OUT                                        OUT
                                    ---                                        ---
   EVAPOTRANSPIRATION =        3229644.12     EVAPOTRANSPIRATION =          32880.24
           STREAMFLOW =        2070919.07             STREAMFLOW =          18067.59
     GW BOUNDARY FLOW =          86431.55       GW BOUNDARY FLOW =            650.25

   INFLOWS - OUTFLOWS =        6451268.49     INFLOWS - OUTFLOWS =         -51598.07
             --------                                   --------

 TOTAL STORAGE CHANGE =        6458855.54         STORAGE CHANGE =         -51558.27
       --------------                             --------------
         LAND SURFACE =        6570014.87           LAND SURFACE =         -32880.24
            SOIL ZONE =        2173201.41              SOIL ZONE =            574.29
     UNSATURATED ZONE =       -1645804.14       UNSATURATED ZONE =         -10839.92
       SATURATED ZONE =        -638556.60         SATURATED ZONE =          -8412.41

 OVERALL BUDGET ERROR =          -7587.05           BUDGET ERROR =            -39.80


  PERCENT DISCREPANCY =             -0.06    PERCENT DISCREPANCY =             -0.08



1
 SUMMARY VOLUMETRIC BUDGET FOR GSFLOW 
 DATE: 02 17 1981              CUMULATIVE TIME STEP:     140
 MODFLOW STRESS PERIOD      2     CURRENT TIME STEP:     140     ITERATIONS:      14

 -----------------------------------------------------------------------------------

   CUMULATIVE VOLUMES               L**3   RATES FOR THIS TIME STEP           L**3/T
   ------------------                      ------------------------

                                     IN                                         IN
                                     --                                         --
        PRECIPITATION =        1.2765D+07          PRECIPITATION =          68928.68
           STREAMFLOW =                               STREAMFLOW =                  
     GW BOUNDARY FLOW =                         GW BOUNDARY FLOW =                  


                                    OUT                                        OUT
                                    ---                                        ---
   EVAPOTRANSPIRATION =        3567733.67     EVAPOTRANSPIRATION =          68604.82
           STREAMFLOW =        2616639.28             STREAMFLOW =         125632.91
     GW BOUNDARY FLOW =          91005.53       GW BOUNDARY FLOW =            656.87

   INFLOWS - OUTFLOWS =        6489602.18     INFLOWS - OUTFLOWS =        -125965.92
             --------                                   --------

 TOTAL STORAGE CHANGE =        6497465.89         STORAGE CHANGE =        -125950.46
       --------------                             --------------
         LAND SURFACE =        5590136.74           LAND SURFACE =        -278668.69
            SOIL ZONE =        2961557.69              SOIL ZONE =          72154.88
     UNSATURATED ZONE =       -1400028.35       UNSATURATED ZONE =          77980.15
       SATURATED ZONE =        -654200.20         SATURATED ZONE =           2583.21

 OVERALL BUDGET ERROR =          -7863.71           BUDGET ERROR =            -15.46


  PERCENT DISCREPANCY =             -0.06    PERCENT DISCREPANCY =             -0.01



1
 SUMMARY VOLUMETRIC BUDGET FOR GSFLOW 
 DATE: 02 24 1981              CUMULATIVE TIME STEP:     147
 MODFLOW STRESS PERIOD      2     CURRENT TIME STEP:     147     ITERATIONS:      14

 -----------------------------------------------------------------------------------

   CUMULATIVE VOLUMES               L**3   RATES FOR THIS TIME STEP           L**3/T
   ------------------                      ------------------------

                                     IN                                         IN
                                     --                                         --
        PRECIPITATION =        1.3179D+07          PRECIPITATION =         344647.71
           STREAMFLOW =                               STREAMFLOW =                  
     GW BOUNDARY FLOW =                         GW BOUNDARY FLOW =                  


                                    OUT                                        OUT
                                    ---                                        ---
   EVAPOTRANSPIRATION =        3909055.95     EVAPOTRANSPIRATION =          18832.86
           STREAMFLOW =        3176704.41             STREAMFLOW =          52178.37
     GW BOUNDARY FLOW =          95598.80       GW BOUNDARY FLOW =            655.15

   INFLOWS - OUTFLOWS =        5997199.30     INFLOWS - OUTFLOWS =         272981.32
             --------                                   --------

 TOTAL STORAGE CHANGE =        6005013.32         STORAGE CHANGE =         272974.60
       --------------                             --------------
         LAND SURFACE =        4984331.51           LAND SURFACE =         286391.25
            SOIL ZONE =        2698056.55              SOIL ZONE =         -43395.75
     UNSATURATED ZONE =       -1047504.87       UNSATURATED ZONE =          27556.75
       SATURATED ZONE =        -629869.87         SATURATED ZONE =           2422.35

 OVERALL BUDGET ERROR =          -7814.02           BUDGET ERROR =              6.72


  PERCENT DISCREPANCY =             -0.06    PERCENT DISCREPANCY =              0.00



1
 SUMMARY VOLUMETRIC BUDGET FOR GSFLOW 
 DATE: 03 03 1981              CUMULATIVE TIME STEP:     154
 MODFLOW STRESS PERIOD      2     CURRENT TIME STEP:     154     ITERATIONS:      11

 -----------------------------------------------------------------------------------

   CUMULATIVE VOLUMES               L**3   RATES FOR THIS TIME STEP           L**3/T
   ------------------                      ------------------------

                                     IN                                         IN
                                     --                                         --
        PRECIPITATION =        1.3447D+07          PRECIPITATION =                  
           STREAMFLOW =                               STREAMFLOW =                  
     GW BOUNDARY FLOW =                         GW BOUNDARY FLOW =                  


                                    OUT                                        OUT
                                    ---                                        ---
   EVAPOTRANSPIRATION =        4069737.54     EVAPOTRANSPIRATION =          45353.37
           STREAMFLOW =        3401062.16             STREAMFLOW =          27807.68
     GW BOUNDARY FLOW =         100171.78       GW BOUNDARY FLOW =            652.32

   INFLOWS - OUTFLOWS =        5875647.31     INFLOWS - OUTFLOWS =         -73813.37
             --------                                   --------

 TOTAL STORAGE CHANGE =        5883342.78         STORAGE CHANGE =         -73834.07
       --------------                             --------------
         LAND SURFACE =        5068234.96           LAND SURFACE =         -66032.09
            SOIL ZONE =        2489680.78              SOIL ZONE =           2862.49
     UNSATURATED ZONE =       -1041089.36       UNSATURATED ZONE =          -8837.24
       SATURATED ZONE =        -633483.59         SATURATED ZONE =          -1827.23

 OVERALL BUDGET ERROR =          -7695.47           BUDGET ERROR =             20.69


  PERCENT DISCREPANCY =             -0.06    PERCENT DISCREPANCY =              0.03



1
 SUMMARY VOLUMETRIC BUDGET FOR GSFLOW 
 DATE: 03 10 1981              CUMULATIVE TIME STEP:     161
 MODFLOW STRESS PERIOD      2     CURRENT TIME STEP:     161     ITERATIONS:      11

 -----------------------------------------------------------------------------------

   CUMULATIVE VOLUMES               L**3   RATES FOR THIS TIME STEP           L**3/T
   ------------------                      ------------------------

                                     IN                                         IN
                                     --                                         --
        PRECIPITATION =        1.3493D+07          PRECIPITATION =                  
           STREAMFLOW =                               STREAMFLOW =                  
     GW BOUNDARY FLOW =                         GW BOUNDARY FLOW =                  


                                    OUT                                        OUT
                                    ---                                        ---
   EVAPOTRANSPIRATION =        4415519.98     EVAPOTRANSPIRATION =          72809.14
           STREAMFLOW =        3637378.45             STREAMFLOW =          43703.18
     GW BOUNDARY FLOW =         104737.89       GW BOUNDARY FLOW =            652.94

   INFLOWS - OUTFLOWS =        5335318.19     INFLOWS - OUTFLOWS =        -117165.26
             --------                                   --------

 TOTAL STORAGE CHANGE =        5342933.16         STORAGE CHANGE =        -117178.72
       --------------                             --------------
         LAND SURFACE =        4391776.94           LAND SURFACE =        -169082.62
            SOIL ZONE =        2603674.46              SOIL ZONE =          28965.43
     UNSATURATED ZONE =       -1008078.84       UNSATURATED ZONE =          23164.10
       SATURATED ZONE =        -644439.40         SATURATED ZONE =           -225.63

 OVERALL BUDGET ERROR =          -7614.97           BUDGET ERROR =             13.46


  PERCENT DISCREPANCY =             -0.06    PERCENT DISCREPANCY =              0.01



1
 SUMMARY VOLUMETRIC BUDGET FOR GSFLOW 
 DATE: 03 17 1981              CUMULATIVE TIME STEP:     168
 MODFLOW STRESS PERIOD      2     CURRENT TIME STEP:     168     ITERATIONS:       9

 -----------------------------------------------------------------------------------

   CUMULATIVE VOLUMES               L**3   RATES FOR THIS TIME STEP           L**3/T
   ------------------                      ------------------------

                                     IN                                         IN
                                     --                                         --
        PRECIPITATION =        1.3745D+07          PRECIPITATION =                  
           STREAMFLOW =                               STREAMFLOW =                  
     GW BOUNDARY FLOW =                         GW BOUNDARY FLOW =                  


                                    OUT                                        OUT
                                    ---                                        ---
   EVAPOTRANSPIRATION =        4783924.72     EVAPOTRANSPIRATION =          40234.43
           STREAMFLOW =        3864709.73             STREAMFLOW =          24168.00
     GW BOUNDARY FLOW =         109305.22       GW BOUNDARY FLOW =            651.89

   INFLOWS - OUTFLOWS =        4986563.15     INFLOWS - OUTFLOWS =         -65054.31
             --------                                   --------

 TOTAL STORAGE CHANGE =        4994088.37         STORAGE CHANGE =         -65061.44
       --------------                             --------------
         LAND SURFACE =        4202563.01           LAND SURFACE =         -39897.20
            SOIL ZONE =        2438303.43              SOIL ZONE =          -5420.17
     UNSATURATED ZONE =        -987204.54       UNSATURATED ZONE =         -15769.95
       SATURATED ZONE =        -659573.53         SATURATED ZONE =          -3974.13

 OVERALL BUDGET ERROR =          -7525.22           BUDGET ERROR =              7.13


  PERCENT DISCREPANCY =             -0.05    PERCENT DISCREPANCY =              0.01



1
 SUMMARY VOLUMETRIC BUDGET FOR GSFLOW 
 DATE: 03 24 1981              CUMULATIVE TIME STEP:     175
 MODFLOW STRESS PERIOD      2     CURRENT TIME STEP:     175     ITERATIONS:       9

 -----------------------------------------------------------------------------------

   CUMULATIVE VOLUMES               L**3   RATES FOR THIS TIME STEP           L**3/T
   ------------------                      ------------------------

                                     IN                                         IN
                                     --                                         --
        PRECIPITATION =        1.4367D+07          PRECIPITATION =                  
           STREAMFLOW =                               STREAMFLOW =                  
     GW BOUNDARY FLOW =                         GW BOUNDARY FLOW =                  


                                    OUT                                        OUT
                                    ---                                        ---
   EVAPOTRANSPIRATION =        5139706.98     EVAPOTRANSPIRATION =          87430.63
           STREAMFLOW =        4040693.60             STREAMFLOW =          26839.21
     GW BOUNDARY FLOW =         113865.71       GW BOUNDARY FLOW =            651.46

   INFLOWS - OUTFLOWS =        5072489.94     INFLOWS - OUTFLOWS =        -114921.30
             --------                                   --------

 TOTAL STORAGE CHANGE =        5080034.32         STORAGE CHANGE =        -114925.12
       --------------                             --------------
         LAND SURFACE =        4477883.40           LAND SURFACE =         -65021.85
            SOIL ZONE =        2351054.21              SOIL ZONE =         -41080.98
     UNSATURATED ZONE =       -1057854.61       UNSATURATED ZONE =          -4279.27
       SATURATED ZONE =        -691048.68         SATURATED ZONE =          -4543.02

 OVERALL BUDGET ERROR =          -7544.38           BUDGET ERROR =              3.83


  PERCENT DISCREPANCY =             -0.05    PERCENT DISCREPANCY =              0.00



1
 SUMMARY VOLUMETRIC BUDGET FOR GSFLOW 
 DATE: 03 31 1981              CUMULATIVE TIME STEP:     182
 MODFLOW STRESS PERIOD      2     CURRENT TIME STEP:     182     ITERATIONS:      12

 -----------------------------------------------------------------------------------

   CUMULATIVE VOLUMES               L**3   RATES FOR THIS TIME STEP           L**3/T
   ------------------                      ------------------------

                                     IN                                         IN
                                     --                                         --
        PRECIPITATION =        1.5777D+07          PRECIPITATION =                  
           STREAMFLOW =                               STREAMFLOW =                  
     GW BOUNDARY FLOW =                         GW BOUNDARY FLOW =                  


                                    OUT                                        OUT
                                    ---                                        ---
   EVAPOTRANSPIRATION =        5569637.75     EVAPOTRANSPIRATION =          54089.89
           STREAMFLOW =        4549949.29             STREAMFLOW =          37149.50
     GW BOUNDARY FLOW =         118447.78       GW BOUNDARY FLOW =            653.61

   INFLOWS - OUTFLOWS =        5538731.37     INFLOWS - OUTFLOWS =         -91893.00
             --------                                   --------

 TOTAL STORAGE CHANGE =        5546216.56         STORAGE CHANGE =         -91917.81
       --------------                             --------------
         LAND SURFACE =        4494493.37           LAND SURFACE =         -55486.84
            SOIL ZONE =        2547516.51              SOIL ZONE =         -41726.56
     UNSATURATED ZONE =        -813415.70       UNSATURATED ZONE =           5912.05
       SATURATED ZONE =        -682377.61         SATURATED ZONE =           -616.47

 OVERALL BUDGET ERROR =          -7485.19           BUDGET ERROR =             24.82


  PERCENT DISCREPANCY =             -0.05    PERCENT DISCREPANCY =              0.03



1
 SUMMARY VOLUMETRIC BUDGET FOR GSFLOW 
 DATE: 04 07 1981              CUMULATIVE TIME STEP:     189
 MODFLOW STRESS PERIOD      2     CURRENT TIME STEP:     189     ITERATIONS:      10

 -----------------------------------------------------------------------------------

   CUMULATIVE VOLUMES               L**3   RATES FOR THIS TIME STEP           L**3/T
   ------------------                      ------------------------

                                     IN                                         IN
                                     --                                         --
        PRECIPITATION =        1.6121D+07          PRECIPITATION =                  
           STREAMFLOW =                               STREAMFLOW =                  
     GW BOUNDARY FLOW =                         GW BOUNDARY FLOW =                  


                                    OUT                                        OUT
                                    ---                                        ---
   EVAPOTRANSPIRATION =        6195701.88     EVAPOTRANSPIRATION =         103842.76
           STREAMFLOW =        4868556.10             STREAMFLOW =          43443.96
     GW BOUNDARY FLOW =         123023.12       GW BOUNDARY FLOW =            653.74

   INFLOWS - OUTFLOWS =        4934202.05     INFLOWS - OUTFLOWS =        -147940.46
             --------                                   --------

 TOTAL STORAGE CHANGE =        4941577.06         STORAGE CHANGE =        -147962.80
       --------------                             --------------
         LAND SURFACE =        3870392.88           LAND SURFACE =        -138669.71
            SOIL ZONE =        2478838.48              SOIL ZONE =         -20344.20
     UNSATURATED ZONE =        -729519.09       UNSATURATED ZONE =          10699.40
       SATURATED ZONE =        -678135.21         SATURATED ZONE =            351.71

 OVERALL BUDGET ERROR =          -7375.01           BUDGET ERROR =             22.33


  PERCENT DISCREPANCY =             -0.05    PERCENT DISCREPANCY =              0.02



1
 SUMMARY VOLUMETRIC BUDGET FOR GSFLOW 
 DATE: 04 14 1981              CUMULATIVE TIME STEP:     196
 MODFLOW STRESS PERIOD      2     CURRENT TIME STEP:     196     ITERATIONS:      13

 -----------------------------------------------------------------------------------

   CUMULATIVE VOLUMES               L**3   RATES FOR THIS TIME STEP           L**3/T
   ------------------                      ------------------------

                                     IN                                         IN
                                     --                                         --
        PRECIPITATION =        1.6121D+07          PRECIPITATION =                  
           STREAMFLOW =                               STREAMFLOW =                  
     GW BOUNDARY FLOW =                         GW BOUNDARY FLOW =                  


                                    OUT                                        OUT
                                    ---                                        ---
   EVAPOTRANSPIRATION =        7106391.62     EVAPOTRANSPIRATION =         191910.02
           STREAMFLOW =        5196083.34             STREAMFLOW =          55527.41
     GW BOUNDARY FLOW =         127598.55       GW BOUNDARY FLOW =            653.68

   INFLOWS - OUTFLOWS =        3691409.64     INFLOWS - OUTFLOWS =        -248091.11
             --------                                   --------

 TOTAL STORAGE CHANGE =        3698659.82         STORAGE CHANGE =        -248100.81
       --------------                             --------------
         LAND SURFACE =        2621639.71           LAND SURFACE =        -253015.87
            SOIL ZONE =        2387302.52              SOIL ZONE =         -16801.90
     UNSATURATED ZONE =        -639134.83       UNSATURATED ZONE =          19479.10
       SATURATED ZONE =        -671147.57         SATURATED ZONE =           2237.87

 OVERALL BUDGET ERROR =          -7250.18           BUDGET ERROR =              9.69


  PERCENT DISCREPANCY =             -0.04    PERCENT DISCREPANCY =              0.00



1
 SUMMARY VOLUMETRIC BUDGET FOR GSFLOW 
 DATE: 04 21 1981              CUMULATIVE TIME STEP:     203
 MODFLOW STRESS PERIOD      2     CURRENT TIME STEP:     203     ITERATIONS:      12

 -----------------------------------------------------------------------------------

   CUMULATIVE VOLUMES               L**3   RATES FOR THIS TIME STEP           L**3/T
   ------------------                      ------------------------

                                     IN                                         IN
                                     --                                         --
        PRECIPITATION =        1.6310D+07          PRECIPITATION =                  
           STREAMFLOW =                               STREAMFLOW =                  
     GW BOUNDARY FLOW =                         GW BOUNDARY FLOW =                  


                                    OUT                                        OUT
                                    ---                                        ---
   EVAPOTRANSPIRATION =        8178350.89     EVAPOTRANSPIRATION =         152248.43
           STREAMFLOW =        5535638.55             STREAMFLOW =          45840.42
     GW BOUNDARY FLOW =         132170.01       GW BOUNDARY FLOW =            652.64

   INFLOWS - OUTFLOWS =        2464097.96     INFLOWS - OUTFLOWS =        -198741.49
             --------                                   --------

 TOTAL STORAGE CHANGE =        2471223.34         STORAGE CHANGE =        -198768.90
       --------------                             --------------
         LAND SURFACE =        1441063.64           LAND SURFACE =        -121364.40
            SOIL ZONE =        2205419.75              SOIL ZONE =         -97315.68
     UNSATURATED ZONE =        -521848.23       UNSATURATED ZONE =          16938.78
       SATURATED ZONE =        -653411.83         SATURATED ZONE =           2972.41

 OVERALL BUDGET ERROR =          -7125.37           BUDGET ERROR =             27.40


  PERCENT DISCREPANCY =             -0.04    PERCENT DISCREPANCY =              0.01



1
 SUMMARY VOLUMETRIC BUDGET FOR GSFLOW 
 DATE: 04 28 1981              CUMULATIVE TIME STEP:     210
 MODFLOW STRESS PERIOD      2     CURRENT TIME STEP:     210     ITERATIONS:      14

 -----------------------------------------------------------------------------------

   CUMULATIVE VOLUMES               L**3   RATES FOR THIS TIME STEP           L**3/T
   ------------------                      ------------------------

                                     IN                                         IN
                                     --                                         --
        PRECIPITATION =        1.6515D+07          PRECIPITATION =                  
           STREAMFLOW =                               STREAMFLOW =                  
     GW BOUNDARY FLOW =                         GW BOUNDARY FLOW =                  


                                    OUT                                        OUT
                                    ---                                        ---
   EVAPOTRANSPIRATION =        9416872.41     EVAPOTRANSPIRATION =         200409.61
           STREAMFLOW =        5747997.96             STREAMFLOW =          24700.26
     GW BOUNDARY FLOW =         136729.51       GW BOUNDARY FLOW =            650.47

   INFLOWS - OUTFLOWS =        1213847.07     INFLOWS - OUTFLOWS =        -225760.34
             --------                                   --------

 TOTAL STORAGE CHANGE =        1220856.50         STORAGE CHANGE =        -225773.76
       --------------                             --------------
         LAND SURFACE =         691620.73           LAND SURFACE =         -83515.74
            SOIL ZONE =        1695359.58              SOIL ZONE =        -138441.09
     UNSATURATED ZONE =        -520618.49       UNSATURATED ZONE =          -4102.68
       SATURATED ZONE =        -645505.33         SATURATED ZONE =            285.75

 OVERALL BUDGET ERROR =          -7009.43           BUDGET ERROR =             13.42


  PERCENT DISCREPANCY =             -0.04    PERCENT DISCREPANCY =              0.01



1
 SUMMARY VOLUMETRIC BUDGET FOR GSFLOW 
 DATE: 05 05 1981              CUMULATIVE TIME STEP:     217
 MODFLOW STRESS PERIOD      2     CURRENT TIME STEP:     217     ITERATIONS:      13

 -----------------------------------------------------------------------------------

   CUMULATIVE VOLUMES               L**3   RATES FOR THIS TIME STEP           L**3/T
   ------------------                      ------------------------

                                     IN                                         IN
                                     --                                         --
        PRECIPITATION =        1.6515D+07          PRECIPITATION =                  
           STREAMFLOW =                               STREAMFLOW =                  
     GW BOUNDARY FLOW =                         GW BOUNDARY FLOW =                  


                                    OUT                                        OUT
                                    ---                                        ---
   EVAPOTRANSPIRATION =        1.0304D+07     EVAPOTRANSPIRATION =          52081.54
           STREAMFLOW =        5853079.01             STREAMFLOW =          10618.69
     GW BOUNDARY FLOW =         141275.87       GW BOUNDARY FLOW =            648.78

   INFLOWS - OUTFLOWS =         217270.96     INFLOWS - OUTFLOWS =         -63349.01
             --------                                   --------

 TOTAL STORAGE CHANGE =         224223.87         STORAGE CHANGE =         -63357.14
       --------------                             --------------
         LAND SURFACE =         347403.61           LAND SURFACE =         -17503.36
            SOIL ZONE =        1153963.25              SOIL ZONE =         -26285.31
     UNSATURATED ZONE =        -618545.16       UNSATURATED ZONE =         -16491.33
       SATURATED ZONE =        -658597.82         SATURATED ZONE =          -3077.15

 OVERALL BUDGET ERROR =          -6952.91           BUDGET ERROR =              8.13


  PERCENT DISCREPANCY =             -0.04    PERCENT DISCREPANCY =              0.01



1
 SUMMARY VOLUMETRIC BUDGET FOR GSFLOW 
 DATE: 05 12 1981              CUMULATIVE TIME STEP:     224
 MODFLOW STRESS PERIOD      2     CURRENT TIME STEP:     224     ITERATIONS:      15

 -----------------------------------------------------------------------------------

   CUMULATIVE VOLUMES               L**3   RATES FOR THIS TIME STEP           L**3/T
   ------------------                      ------------------------

                                     IN                                         IN
                                     --                                         --
        PRECIPITATION =        1.6515D+07          PRECIPITATION =                  
           STREAMFLOW =                               STREAMFLOW =                  
     GW BOUNDARY FLOW =                         GW BOUNDARY FLOW =                  


                                    OUT                                        OUT
                                    ---                                        ---
   EVAPOTRANSPIRATION =        1.0824D+07     EVAPOTRANSPIRATION =          91406.52
           STREAMFLOW =        5922214.95             STREAMFLOW =          10134.62
     GW BOUNDARY FLOW =         145814.31       GW BOUNDARY FLOW =            648.17

   INFLOWS - OUTFLOWS =        -376879.60     INFLOWS - OUTFLOWS =        -102189.31
             --------                                   --------

 TOTAL STORAGE CHANGE =        -369915.59         STORAGE CHANGE =        -102184.43
       --------------                             --------------
         LAND SURFACE =         198720.95           LAND SURFACE =         -25499.92
            SOIL ZONE =         845916.36              SOIL ZONE =         -57498.10
     UNSATURATED ZONE =        -726060.76       UNSATURATED ZONE =         -13705.63
       SATURATED ZONE =        -688492.14         SATURATED ZONE =          -5480.78

 OVERALL BUDGET ERROR =          -6964.01           BUDGET ERROR =             -4.88


  PERCENT DISCREPANCY =             -0.04    PERCENT DISCREPANCY =             -0.00



1
 SUMMARY VOLUMETRIC BUDGET FOR GSFLOW 
 DATE: 05 19 1981              CUMULATIVE TIME STEP:     231
 MODFLOW STRESS PERIOD      2     CURRENT TIME STEP:     231     ITERATIONS:      15

 -----------------------------------------------------------------------------------

   CUMULATIVE VOLUMES               L**3   RATES FOR THIS TIME STEP           L**3/T
   ------------------                      ------------------------

                                     IN                                         IN
                                     --                                         --
        PRECIPITATION =        1.7837D+07          PRECIPITATION =         169047.83
           STREAMFLOW =                               STREAMFLOW =                  
     GW BOUNDARY FLOW =                         GW BOUNDARY FLOW =                  


                                    OUT                                        OUT
                                    ---                                        ---
   EVAPOTRANSPIRATION =        1.1182D+07     EVAPOTRANSPIRATION =          35342.78
           STREAMFLOW =        6046871.46             STREAMFLOW =          25711.96
     GW BOUNDARY FLOW =         150353.34       GW BOUNDARY FLOW =            649.44

   INFLOWS - OUTFLOWS =         458152.91     INFLOWS - OUTFLOWS =         107343.65
             --------                                   --------

 TOTAL STORAGE CHANGE =         465128.69         STORAGE CHANGE =         107346.94
       --------------                             --------------
         LAND SURFACE =         167126.53           LAND SURFACE =           4530.43
            SOIL ZONE =        1825341.36              SOIL ZONE =         110326.15
     UNSATURATED ZONE =        -798850.55       UNSATURATED ZONE =          -1989.95
       SATURATED ZONE =        -728488.66         SATURATED ZONE =          -5519.69

 OVERALL BUDGET ERROR =          -6975.77           BUDGET ERROR =             -3.29


  PERCENT DISCREPANCY =             -0.04    PERCENT DISCREPANCY =             -0.00



1
 SUMMARY VOLUMETRIC BUDGET FOR GSFLOW 
 DATE: 05 26 1981              CUMULATIVE TIME STEP:     238
 MODFLOW STRESS PERIOD      2     CURRENT TIME STEP:     238     ITERATIONS:      12

 -----------------------------------------------------------------------------------

   CUMULATIVE VOLUMES               L**3   RATES FOR THIS TIME STEP           L**3/T
   ------------------                      ------------------------

                                     IN                                         IN
                                     --                                         --
        PRECIPITATION =        1.8252D+07          PRECIPITATION =         284301.98
           STREAMFLOW =                               STREAMFLOW =                  
     GW BOUNDARY FLOW =                         GW BOUNDARY FLOW =                  


                                    OUT                                        OUT
                                    ---                                        ---
   EVAPOTRANSPIRATION =        1.2069D+07     EVAPOTRANSPIRATION =         143477.50
           STREAMFLOW =        6153444.26             STREAMFLOW =          18236.41
     GW BOUNDARY FLOW =         154894.00       GW BOUNDARY FLOW =            648.43

   INFLOWS - OUTFLOWS =        -125204.93     INFLOWS - OUTFLOWS =         121939.65
             --------                                   --------

 TOTAL STORAGE CHANGE =        -118221.84         STORAGE CHANGE =         121941.78
       --------------                             --------------
         LAND SURFACE =          96901.93           LAND SURFACE =          -7055.52
            SOIL ZONE =        1422130.35              SOIL ZONE =         146906.03
     UNSATURATED ZONE =        -860453.80       UNSATURATED ZONE =         -11057.86
       SATURATED ZONE =        -776800.33         SATURATED ZONE =          -6850.87

 OVERALL BUDGET ERROR =          -6983.09           BUDGET ERROR =             -2.14


  PERCENT DISCREPANCY =             -0.04    PERCENT DISCREPANCY =             -0.00



1
 SUMMARY VOLUMETRIC BUDGET FOR GSFLOW 
 DATE: 06 02 1981              CUMULATIVE TIME STEP:     245
 MODFLOW STRESS PERIOD      2     CURRENT TIME STEP:     245     ITERATIONS:      14

 -----------------------------------------------------------------------------------

   CUMULATIVE VOLUMES               L**3   RATES FOR THIS TIME STEP           L**3/T
   ------------------                      ------------------------

                                     IN                                         IN
                                     --                                         --
        PRECIPITATION =        1.8318D+07          PRECIPITATION =          50867.39
           STREAMFLOW =                               STREAMFLOW =                  
     GW BOUNDARY FLOW =                         GW BOUNDARY FLOW =                  


                                    OUT                                        OUT
                                    ---                                        ---
   EVAPOTRANSPIRATION =        1.2872D+07     EVAPOTRANSPIRATION =          65294.06
           STREAMFLOW =        6219786.56             STREAMFLOW =           7490.59
     GW BOUNDARY FLOW =         159428.65       GW BOUNDARY FLOW =            647.38

   INFLOWS - OUTFLOWS =        -933009.64     INFLOWS - OUTFLOWS =         -22564.64
             --------                                   --------

 TOTAL STORAGE CHANGE =        -925989.58         STORAGE CHANGE =         -22552.90
       --------------                             --------------
         LAND SURFACE =          61824.55           LAND SURFACE =          30829.61
            SOIL ZONE =         795925.54              SOIL ZONE =         -31138.53
     UNSATURATED ZONE =        -949610.41       UNSATURATED ZONE =         -13739.17
       SATURATED ZONE =        -834129.26         SATURATED ZONE =          -8504.81

 OVERALL BUDGET ERROR =          -7020.07           BUDGET ERROR =            -11.74


  PERCENT DISCREPANCY =             -0.04    PERCENT DISCREPANCY =             -0.02



1
 SUMMARY VOLUMETRIC BUDGET FOR GSFLOW 
 DATE: 06 09 1981              CUMULATIVE TIME STEP:     252
 MODFLOW STRESS PERIOD      2     CURRENT TIME STEP:     252     ITERATIONS:      13

 -----------------------------------------------------------------------------------

   CUMULATIVE VOLUMES               L**3   RATES FOR THIS TIME STEP           L**3/T
   ------------------                      ------------------------

                                     IN                                         IN
                                     --                                         --
        PRECIPITATION =        1.8318D+07          PRECIPITATION =                  
           STREAMFLOW =                               STREAMFLOW =                  
     GW BOUNDARY FLOW =                         GW BOUNDARY FLOW =                  


                                    OUT                                        OUT
                                    ---                                        ---
   EVAPOTRANSPIRATION =        1.3342D+07     EVAPOTRANSPIRATION =          48771.34
           STREAMFLOW =        6266552.38             STREAMFLOW =           6331.76
     GW BOUNDARY FLOW =         163958.31       GW BOUNDARY FLOW =            646.94

   INFLOWS - OUTFLOWS =       -1454686.24     INFLOWS - OUTFLOWS =         -55750.03
             --------                                   --------

 TOTAL STORAGE CHANGE =       -1447627.27         STORAGE CHANGE =         -55737.80
       --------------                             --------------
         LAND SURFACE =           8254.44           LAND SURFACE =          -1595.45
            SOIL ZONE =         483576.65              SOIL ZONE =         -31947.28
     UNSATURATED ZONE =       -1043480.38       UNSATURATED ZONE =         -13203.82
       SATURATED ZONE =        -895977.98         SATURATED ZONE =          -8991.25

 OVERALL BUDGET ERROR =          -7058.97           BUDGET ERROR =            -12.23


  PERCENT DISCREPANCY =             -0.04    PERCENT DISCREPANCY =             -0.02



1
 SUMMARY VOLUMETRIC BUDGET FOR GSFLOW 
 DATE: 06 16 1981              CUMULATIVE TIME STEP:     259
 MODFLOW STRESS PERIOD      2     CURRENT TIME STEP:     259     ITERATIONS:      12

 -----------------------------------------------------------------------------------

   CUMULATIVE VOLUMES               L**3   RATES FOR THIS TIME STEP           L**3/T
   ------------------                      ------------------------

                                     IN                                         IN
                                     --                                         --
        PRECIPITATION =        1.8318D+07          PRECIPITATION =                  
           STREAMFLOW =                               STREAMFLOW =                  
     GW BOUNDARY FLOW =                         GW BOUNDARY FLOW =                  


                                    OUT                                        OUT
                                    ---                                        ---
   EVAPOTRANSPIRATION =        1.3528D+07     EVAPOTRANSPIRATION =          44143.55
           STREAMFLOW =        6309852.50             STREAMFLOW =           6122.55
     GW BOUNDARY FLOW =         168486.00       GW BOUNDARY FLOW =            646.73

   INFLOWS - OUTFLOWS =       -1687588.70     INFLOWS - OUTFLOWS =         -50912.84
             --------                                   --------

 TOTAL STORAGE CHANGE =       -1680494.78         STORAGE CHANGE =         -50908.12
       --------------                             --------------
         LAND SURFACE =           3426.51           LAND SURFACE =           -943.67
            SOIL ZONE =         409650.74              SOIL ZONE =         -28077.64
     UNSATURATED ZONE =       -1133692.35       UNSATURATED ZONE =         -12604.90
       SATURATED ZONE =        -959879.67         SATURATED ZONE =          -9281.92

 OVERALL BUDGET ERROR =          -7093.93           BUDGET ERROR =             -4.71


  PERCENT DISCREPANCY =             -0.04    PERCENT DISCREPANCY =             -0.01



1
 SUMMARY VOLUMETRIC BUDGET FOR GSFLOW 
 DATE: 06 23 1981              CUMULATIVE TIME STEP:     266
 MODFLOW STRESS PERIOD      2     CURRENT TIME STEP:     266     ITERATIONS:      14

 -----------------------------------------------------------------------------------

   CUMULATIVE VOLUMES               L**3   RATES FOR THIS TIME STEP           L**3/T
   ------------------                      ------------------------

                                     IN                                         IN
                                     --                                         --
        PRECIPITATION =        1.8318D+07          PRECIPITATION =                  
           STREAMFLOW =                               STREAMFLOW =                  
     GW BOUNDARY FLOW =                         GW BOUNDARY FLOW =                  


                                    OUT                                        OUT
                                    ---                                        ---
   EVAPOTRANSPIRATION =        1.3807D+07     EVAPOTRANSPIRATION =          33109.61
           STREAMFLOW =        6351877.90             STREAMFLOW =           5941.95
     GW BOUNDARY FLOW =         173012.46       GW BOUNDARY FLOW =            646.56

   INFLOWS - OUTFLOWS =       -2013417.64     INFLOWS - OUTFLOWS =         -39698.12
             --------                                   --------

 TOTAL STORAGE CHANGE =       -2006307.24         STORAGE CHANGE =         -39699.94
       --------------                             --------------
         LAND SURFACE =                             LAND SURFACE =                  
            SOIL ZONE =         239333.18              SOIL ZONE =         -18090.40
     UNSATURATED ZONE =       -1218985.08       UNSATURATED ZONE =         -11757.74
       SATURATED ZONE =       -1026655.35         SATURATED ZONE =          -9851.80

 OVERALL BUDGET ERROR =          -7110.39           BUDGET ERROR =              1.82


  PERCENT DISCREPANCY =             -0.03    PERCENT DISCREPANCY =              0.00



1
 SUMMARY VOLUMETRIC BUDGET FOR GSFLOW 
 DATE: 06 30 1981              CUMULATIVE TIME STEP:     273
 MODFLOW STRESS PERIOD      2     CURRENT TIME STEP:     273     ITERATIONS:       9

 -----------------------------------------------------------------------------------

   CUMULATIVE VOLUMES               L**3   RATES FOR THIS TIME STEP           L**3/T
   ------------------                      ------------------------

                                     IN                                         IN
[...]
                                    ---                                        ---
   EVAPOTRANSPIRATION =        2.8836D+08     EVAPOTRANSPIRATION =          41349.84
           STREAMFLOW =        1.8087D+08             STREAMFLOW =           6899.53
     GW BOUNDARY FLOW =        3735684.54       GW BOUNDARY FLOW =            650.71

   INFLOWS - OUTFLOWS =       -7906029.50     INFLOWS - OUTFLOWS =         -48900.08
             --------                                   --------

 TOTAL STORAGE CHANGE =       -7798213.84         STORAGE CHANGE =         -48916.05
       --------------                             --------------
         LAND SURFACE =          84521.90           LAND SURFACE =          -4963.73
            SOIL ZONE =         222748.45              SOIL ZONE =         -22637.84
     UNSATURATED ZONE =        5290639.99       UNSATURATED ZONE =         -27600.58
       SATURATED ZONE =       -1.3396D+07         SATURATED ZONE =           6286.11

 OVERALL BUDGET ERROR =        -107815.66           BUDGET ERROR =             15.97


  PERCENT DISCREPANCY =             -0.02    PERCENT DISCREPANCY =              0.03



1
 SUMMARY VOLUMETRIC BUDGET FOR GSFLOW 
 DATE: 07 30 1996              CUMULATIVE TIME STEP:    5782
 MODFLOW STRESS PERIOD      2     CURRENT TIME STEP:    5782     ITERATIONS:      13

 -----------------------------------------------------------------------------------

   CUMULATIVE VOLUMES               L**3   RATES FOR THIS TIME STEP           L**3/T
   ------------------                      ------------------------

                                     IN                                         IN
                                     --                                         --
        PRECIPITATION =        4.6511D+08          PRECIPITATION =                  
           STREAMFLOW =                               STREAMFLOW =                  
     GW BOUNDARY FLOW =                         GW BOUNDARY FLOW =                  


                                    OUT                                        OUT
                                    ---                                        ---
   EVAPOTRANSPIRATION =        2.8862D+08     EVAPOTRANSPIRATION =          25444.94
           STREAMFLOW =        1.8091D+08             STREAMFLOW =           6744.68
     GW BOUNDARY FLOW =        3740237.90       GW BOUNDARY FLOW =            650.29

   INFLOWS - OUTFLOWS =       -8163244.44     INFLOWS - OUTFLOWS =         -32839.91
             --------                                   --------

 TOTAL STORAGE CHANGE =       -8055526.27         STORAGE CHANGE =         -32858.38
       --------------                             --------------
         LAND SURFACE =          55427.09           LAND SURFACE =          -3488.58
            SOIL ZONE =         142338.17              SOIL ZONE =          -8384.75
     UNSATURATED ZONE =        5103103.53       UNSATURATED ZONE =         -26303.53
       SATURATED ZONE =       -1.3356D+07         SATURATED ZONE =           5318.48

 OVERALL BUDGET ERROR =        -107718.17           BUDGET ERROR =             18.47


  PERCENT DISCREPANCY =             -0.02    PERCENT DISCREPANCY =              0.06



1
 SUMMARY VOLUMETRIC BUDGET FOR GSFLOW 
 DATE: 08 06 1996              CUMULATIVE TIME STEP:    5789
 MODFLOW STRESS PERIOD      2     CURRENT TIME STEP:    5789     ITERATIONS:      13

 -----------------------------------------------------------------------------------

   CUMULATIVE VOLUMES               L**3   RATES FOR THIS TIME STEP           L**3/T
   ------------------                      ------------------------

                                     IN                                         IN
                                     --                                         --
        PRECIPITATION =        4.6511D+08          PRECIPITATION =                  
           STREAMFLOW =                               STREAMFLOW =                  
     GW BOUNDARY FLOW =                         GW BOUNDARY FLOW =                  


                                    OUT                                        OUT
                                    ---                                        ---
   EVAPOTRANSPIRATION =        2.8876D+08     EVAPOTRANSPIRATION =          18635.76
           STREAMFLOW =        1.8096D+08             STREAMFLOW =           6544.43
     GW BOUNDARY FLOW =        3744788.14       GW BOUNDARY FLOW =            649.92

   INFLOWS - OUTFLOWS =       -8350412.59     INFLOWS - OUTFLOWS =         -25830.11
             --------                                   --------

 TOTAL STORAGE CHANGE =       -8242825.40         STORAGE CHANGE =         -25855.56
       --------------                             --------------
         LAND SURFACE =          37080.11           LAND SURFACE =          -2254.04
            SOIL ZONE =         119090.58              SOIL ZONE =          -2904.22
     UNSATURATED ZONE =        4921246.53       UNSATURATED ZONE =         -25493.55
       SATURATED ZONE =       -1.3320D+07         SATURATED ZONE =           4796.25

 OVERALL BUDGET ERROR =        -107587.19           BUDGET ERROR =             25.45


  PERCENT DISCREPANCY =             -0.02    PERCENT DISCREPANCY =              0.10



1
 SUMMARY VOLUMETRIC BUDGET FOR GSFLOW 
 DATE: 08 13 1996              CUMULATIVE TIME STEP:    5796
 MODFLOW STRESS PERIOD      2     CURRENT TIME STEP:    5796     ITERATIONS:      14

 -----------------------------------------------------------------------------------

   CUMULATIVE VOLUMES               L**3   RATES FOR THIS TIME STEP           L**3/T
   ------------------                      ------------------------

                                     IN                                         IN
                                     --                                         --
        PRECIPITATION =        4.6531D+08          PRECIPITATION =          54456.73
           STREAMFLOW =                               STREAMFLOW =                  
     GW BOUNDARY FLOW =                         GW BOUNDARY FLOW =                  


                                    OUT                                        OUT
                                    ---                                        ---
   EVAPOTRANSPIRATION =        2.8893D+08     EVAPOTRANSPIRATION =          33310.63
           STREAMFLOW =        1.8101D+08             STREAMFLOW =           7744.75
     GW BOUNDARY FLOW =        3749337.47       GW BOUNDARY FLOW =            649.95

   INFLOWS - OUTFLOWS =       -8373769.00     INFLOWS - OUTFLOWS =          12751.40
             --------                                   --------

 TOTAL STORAGE CHANGE =       -8266281.62         STORAGE CHANGE =          12743.91
       --------------                             --------------
         LAND SURFACE =          53177.14           LAND SURFACE =          -2312.81
            SOIL ZONE =         222867.15              SOIL ZONE =          35336.75
     UNSATURATED ZONE =        4748200.71       UNSATURATED ZONE =         -24087.59
       SATURATED ZONE =       -1.3291D+07         SATURATED ZONE =           3807.58

 OVERALL BUDGET ERROR =        -107487.38           BUDGET ERROR =              7.48


  PERCENT DISCREPANCY =             -0.02    PERCENT DISCREPANCY =              0.01



1
 SUMMARY VOLUMETRIC BUDGET FOR GSFLOW 
 DATE: 08 20 1996              CUMULATIVE TIME STEP:    5803
 MODFLOW STRESS PERIOD      2     CURRENT TIME STEP:    5803     ITERATIONS:      13

 -----------------------------------------------------------------------------------

   CUMULATIVE VOLUMES               L**3   RATES FOR THIS TIME STEP           L**3/T
   ------------------                      ------------------------

                                     IN                                         IN
                                     --                                         --
        PRECIPITATION =        4.6531D+08          PRECIPITATION =                  
           STREAMFLOW =                               STREAMFLOW =                  
     GW BOUNDARY FLOW =                         GW BOUNDARY FLOW =                  


                                    OUT                                        OUT
                                    ---                                        ---
   EVAPOTRANSPIRATION =        2.8913D+08     EVAPOTRANSPIRATION =          16725.44
           STREAMFLOW =        1.8105D+08             STREAMFLOW =           6351.81
     GW BOUNDARY FLOW =        3753885.73       GW BOUNDARY FLOW =            649.60

   INFLOWS - OUTFLOWS =       -8621386.89     INFLOWS - OUTFLOWS =         -23726.85
             --------                                   --------

 TOTAL STORAGE CHANGE =       -8514019.77         STORAGE CHANGE =         -23748.79
       --------------                             --------------
         LAND SURFACE =           6933.74           LAND SURFACE =          -1297.55
            SOIL ZONE =         163297.86              SOIL ZONE =          -2276.62
     UNSATURATED ZONE =        4583792.52       UNSATURATED ZONE =         -23055.79
       SATURATED ZONE =       -1.3268D+07         SATURATED ZONE =           2881.17

 OVERALL BUDGET ERROR =        -107367.12           BUDGET ERROR =             21.94


  PERCENT DISCREPANCY =             -0.02    PERCENT DISCREPANCY =              0.09



1
 SUMMARY VOLUMETRIC BUDGET FOR GSFLOW 
 DATE: 08 27 1996              CUMULATIVE TIME STEP:    5810
 MODFLOW STRESS PERIOD      2     CURRENT TIME STEP:    5810     ITERATIONS:      13

 -----------------------------------------------------------------------------------

   CUMULATIVE VOLUMES               L**3   RATES FOR THIS TIME STEP           L**3/T
   ------------------                      ------------------------

                                     IN                                         IN
                                     --                                         --
        PRECIPITATION =        4.6531D+08          PRECIPITATION =                  
           STREAMFLOW =                               STREAMFLOW =                  
     GW BOUNDARY FLOW =                         GW BOUNDARY FLOW =                  


                                    OUT                                        OUT
                                    ---                                        ---
   EVAPOTRANSPIRATION =        2.8926D+08     EVAPOTRANSPIRATION =          15210.51
           STREAMFLOW =        1.8110D+08             STREAMFLOW =           6193.11
     GW BOUNDARY FLOW =        3758431.62       GW BOUNDARY FLOW =            649.27

   INFLOWS - OUTFLOWS =       -8806049.46     INFLOWS - OUTFLOWS =         -22052.88
             --------                                   --------

 TOTAL STORAGE CHANGE =       -8698777.47         STORAGE CHANGE =         -22070.12
       --------------                             --------------
         LAND SURFACE =           1244.67           LAND SURFACE =           -272.68
            SOIL ZONE =         124418.78              SOIL ZONE =          -1867.82
     UNSATURATED ZONE =        4427502.50       UNSATURATED ZONE =         -21935.52
       SATURATED ZONE =       -1.3252D+07         SATURATED ZONE =           2005.89

 OVERALL BUDGET ERROR =        -107271.99           BUDGET ERROR =             17.24


  PERCENT DISCREPANCY =             -0.02    PERCENT DISCREPANCY =              0.08



1
 SUMMARY VOLUMETRIC BUDGET FOR GSFLOW 
 DATE: 09 03 1996              CUMULATIVE TIME STEP:    5817
 MODFLOW STRESS PERIOD      2     CURRENT TIME STEP:    5817     ITERATIONS:      12

 -----------------------------------------------------------------------------------

   CUMULATIVE VOLUMES               L**3   RATES FOR THIS TIME STEP           L**3/T
   ------------------                      ------------------------

                                     IN                                         IN
                                     --                                         --
        PRECIPITATION =        4.6531D+08          PRECIPITATION =                  
           STREAMFLOW =                               STREAMFLOW =                  
     GW BOUNDARY FLOW =                         GW BOUNDARY FLOW =                  


                                    OUT                                        OUT
                                    ---                                        ---
   EVAPOTRANSPIRATION =        2.8937D+08     EVAPOTRANSPIRATION =          12386.88
           STREAMFLOW =        1.8114D+08             STREAMFLOW =           6093.39
     GW BOUNDARY FLOW =        3762975.00       GW BOUNDARY FLOW =            648.89

   INFLOWS - OUTFLOWS =       -8955485.41     INFLOWS - OUTFLOWS =         -19129.16
             --------                                   --------

 TOTAL STORAGE CHANGE =       -8848388.99         STORAGE CHANGE =         -19150.44
       --------------                             --------------
         LAND SURFACE =            584.39           LAND SURFACE =            -75.06
            SOIL ZONE =         114122.94              SOIL ZONE =            634.14
     UNSATURATED ZONE =        4277254.68       UNSATURATED ZONE =         -21213.54
       SATURATED ZONE =       -1.3240D+07         SATURATED ZONE =           1504.03

 OVERALL BUDGET ERROR =        -107096.41           BUDGET ERROR =             21.27


  PERCENT DISCREPANCY =             -0.02    PERCENT DISCREPANCY =              0.11



1
 SUMMARY VOLUMETRIC BUDGET FOR GSFLOW 
 DATE: 09 10 1996              CUMULATIVE TIME STEP:    5824
 MODFLOW STRESS PERIOD      2     CURRENT TIME STEP:    5824     ITERATIONS:      12

 -----------------------------------------------------------------------------------

   CUMULATIVE VOLUMES               L**3   RATES FOR THIS TIME STEP           L**3/T
   ------------------                      ------------------------

                                     IN                                         IN
                                     --                                         --
        PRECIPITATION =        4.6531D+08          PRECIPITATION =                  
           STREAMFLOW =                               STREAMFLOW =                  
     GW BOUNDARY FLOW =                         GW BOUNDARY FLOW =                  


                                    OUT                                        OUT
                                    ---                                        ---
   EVAPOTRANSPIRATION =        2.8945D+08     EVAPOTRANSPIRATION =          13303.62
           STREAMFLOW =        1.8118D+08             STREAMFLOW =           6001.96
     GW BOUNDARY FLOW =        3767515.78       GW BOUNDARY FLOW =            648.52

   INFLOWS - OUTFLOWS =       -9085276.34     INFLOWS - OUTFLOWS =         -19954.09
             --------                                   --------

 TOTAL STORAGE CHANGE =       -8978354.82         STORAGE CHANGE =         -19980.83
       --------------                             --------------
         LAND SURFACE =            141.93           LAND SURFACE =            -69.29
            SOIL ZONE =         121729.96              SOIL ZONE =           -411.04
     UNSATURATED ZONE =        4129682.46       UNSATURATED ZONE =         -20878.05
       SATURATED ZONE =       -1.3230D+07         SATURATED ZONE =           1377.56

 OVERALL BUDGET ERROR =        -106921.51           BUDGET ERROR =             26.74


  PERCENT DISCREPANCY =             -0.02    PERCENT DISCREPANCY =              0.13



1
 SUMMARY VOLUMETRIC BUDGET FOR GSFLOW 
 DATE: 09 17 1996              CUMULATIVE TIME STEP:    5831
 MODFLOW STRESS PERIOD      2     CURRENT TIME STEP:    5831     ITERATIONS:      12

 -----------------------------------------------------------------------------------

   CUMULATIVE VOLUMES               L**3   RATES FOR THIS TIME STEP           L**3/T
   ------------------                      ------------------------

                                     IN                                         IN
                                     --                                         --
        PRECIPITATION =        4.6637D+08          PRECIPITATION =                  
           STREAMFLOW =                               STREAMFLOW =                  
     GW BOUNDARY FLOW =                         GW BOUNDARY FLOW =                  


                                    OUT                                        OUT
                                    ---                                        ---
   EVAPOTRANSPIRATION =        2.8963D+08     EVAPOTRANSPIRATION =          63860.91
           STREAMFLOW =        1.8125D+08             STREAMFLOW =          10052.63
     GW BOUNDARY FLOW =        3772055.92       GW BOUNDARY FLOW =            648.93

   INFLOWS - OUTFLOWS =       -8286895.43     INFLOWS - OUTFLOWS =         -74562.47
             --------                                   --------

 TOTAL STORAGE CHANGE =       -8180161.22         STORAGE CHANGE =         -74582.72
       --------------                             --------------
         LAND SURFACE =           2829.02           LAND SURFACE =         -35615.32
            SOIL ZONE =        1050702.87              SOIL ZONE =         -19676.44
     UNSATURATED ZONE =        3987639.39       UNSATURATED ZONE =         -19898.90
       SATURATED ZONE =       -1.3221D+07         SATURATED ZONE =            607.94

 OVERALL BUDGET ERROR =        -106734.21           BUDGET ERROR =             20.25


  PERCENT DISCREPANCY =             -0.02    PERCENT DISCREPANCY =              0.03



1
 SUMMARY VOLUMETRIC BUDGET FOR GSFLOW 
 DATE: 09 24 1996              CUMULATIVE TIME STEP:    5838
 MODFLOW STRESS PERIOD      2     CURRENT TIME STEP:    5838     ITERATIONS:      12

 -----------------------------------------------------------------------------------

   CUMULATIVE VOLUMES               L**3   RATES FOR THIS TIME STEP           L**3/T
   ------------------                      ------------------------

                                     IN                                         IN
                                     --                                         --
        PRECIPITATION =        4.6637D+08          PRECIPITATION =                  
           STREAMFLOW =                               STREAMFLOW =                  
     GW BOUNDARY FLOW =                         GW BOUNDARY FLOW =                  


                                    OUT                                        OUT
                                    ---                                        ---
   EVAPOTRANSPIRATION =        2.9012D+08     EVAPOTRANSPIRATION =          55314.98
           STREAMFLOW =        1.8130D+08             STREAMFLOW =           6398.34
     GW BOUNDARY FLOW =        3776594.47       GW BOUNDARY FLOW =            648.03

   INFLOWS - OUTFLOWS =       -8826422.23     INFLOWS - OUTFLOWS =         -62361.35
             --------                                   --------

 TOTAL STORAGE CHANGE =       -8719904.03         STORAGE CHANGE =         -62379.52
       --------------                             --------------
         LAND SURFACE =                             LAND SURFACE =                  
            SOIL ZONE =         648259.75              SOIL ZONE =         -43263.97
     UNSATURATED ZONE =        3851954.04       UNSATURATED ZONE =         -19199.01
       SATURATED ZONE =       -1.3220D+07         SATURATED ZONE =             83.46

 OVERALL BUDGET ERROR =        -106518.20           BUDGET ERROR =             18.17


  PERCENT DISCREPANCY =             -0.02    PERCENT DISCREPANCY =              0.03



