1
 SUMMARY VOLUMETRIC BUDGET FOR GSFLOW 
 DATE: 10 07 1980              CUMULATIVE TIME STEP:       7
 MODFLOW STRESS PERIOD      2     CURRENT TIME STEP:       7     ITERATIONS:       6

 -----------------------------------------------------------------------------------

   CUMULATIVE VOLUMES               L**3   RATES FOR THIS TIME STEP           L**3/T
   ------------------                      ------------------------

                                     IN                                         IN
                                     --                                         --
        PRECIPITATION =                            PRECIPITATION =                  
           STREAMFLOW =                               STREAMFLOW =                  
     GW BOUNDARY FLOW =                         GW BOUNDARY FLOW =                  


                                    OUT                                        OUT
                                    ---                                        ---
   EVAPOTRANSPIRATION =          63502.38     EVAPOTRANSPIRATION =           9679.51
           STREAMFLOW =          42957.63             STREAMFLOW =           6065.77
     GW BOUNDARY FLOW =           4541.44       GW BOUNDARY FLOW =            648.70

   INFLOWS - OUTFLOWS =        -111001.44     INFLOWS - OUTFLOWS =         -16393.99
             --------                                   --------

 TOTAL STORAGE CHANGE =        -110545.66         STORAGE CHANGE =         -16325.67
       --------------                             --------------
         LAND SURFACE =                             LAND SURFACE =                  
            SOIL ZONE =          47014.67              SOIL ZONE =           6016.91
     UNSATURATED ZONE =        -144777.37       UNSATURATED ZONE =         -20360.11
       SATURATED ZONE =         -12782.96         SATURATED ZONE =          -1982.46

 OVERALL BUDGET ERROR =           -455.78           BUDGET ERROR =            -68.32


  PERCENT DISCREPANCY =             -0.41    PERCENT DISCREPANCY =             -0.42



1
 SUMMARY VOLUMETRIC BUDGET FOR GSFLOW 
 DATE: 10 14 1980              CUMULATIVE TIME STEP:      14
 MODFLOW STRESS PERIOD      2     CURRENT TIME STEP:      14     ITERATIONS:       6

 -----------------------------------------------------------------------------------

   CUMULATIVE VOLUMES               L**3   RATES FOR THIS TIME STEP           L**3/T
   ------------------                      ------------------------

                                     IN                                         IN
                                     --                                         --
        PRECIPITATION =         650780.39          PRECIPITATION =         164754.68
           STREAMFLOW =                               STREAMFLOW =                  
     GW BOUNDARY FLOW =                         GW BOUNDARY FLOW =                  


                                    OUT                                        OUT
                                    ---                                        ---
   EVAPOTRANSPIRATION =         147519.26     EVAPOTRANSPIRATION =           7886.70
           STREAMFLOW =          92677.73             STREAMFLOW =           7494.70
     GW BOUNDARY FLOW =           9082.78       GW BOUNDARY FLOW =            648.89

   INFLOWS - OUTFLOWS =         401500.62     INFLOWS - OUTFLOWS =         148724.39
             --------                                   --------

 TOTAL STORAGE CHANGE =         402471.13         STORAGE CHANGE =         148798.38
       --------------                             --------------
         LAND SURFACE =         277680.20           LAND SURFACE =         136619.69
            SOIL ZONE =         436917.78              SOIL ZONE =          34196.55
     UNSATURATED ZONE =        -284452.37       UNSATURATED ZONE =         -19623.49
       SATURATED ZONE =         -27674.48         SATURATED ZONE =          -2394.36

 OVERALL BUDGET ERROR =           -970.51           BUDGET ERROR =            -74.00


  PERCENT DISCREPANCY =             -0.15    PERCENT DISCREPANCY =             -0.04



1
 SUMMARY VOLUMETRIC BUDGET FOR GSFLOW 
 DATE: 10 21 1980              CUMULATIVE TIME STEP:      21
 MODFLOW STRESS PERIOD      2     CURRENT TIME STEP:      21     ITERATIONS:       6

 -----------------------------------------------------------------------------------

   CUMULATIVE VOLUMES               L**3   RATES FOR THIS TIME STEP           L**3/T
   ------------------                      ------------------------

                                     IN                                         IN
                                     --                                         --
        PRECIPITATION =         733156.23          PRECIPITATION =                  
           STREAMFLOW =                               STREAMFLOW =                  
     GW BOUNDARY FLOW =                         GW BOUNDARY FLOW =                  


                                    OUT                                        OUT
                                    ---                                        ---
   EVAPOTRANSPIRATION =         373107.52     EVAPOTRANSPIRATION =          36446.04
           STREAMFLOW =         144890.95             STREAMFLOW =           7105.98
     GW BOUNDARY FLOW =          13624.56       GW BOUNDARY FLOW =            648.77

   INFLOWS - OUTFLOWS =         201533.21     INFLOWS - OUTFLOWS =         -44200.79
             --------                                   --------

 TOTAL STORAGE CHANGE =         203014.41         STORAGE CHANGE =         -44120.13
       --------------                             --------------
         LAND SURFACE =           2252.39           LAND SURFACE =          -3155.26
            SOIL ZONE =         665729.18              SOIL ZONE =         -19173.04
     UNSATURATED ZONE =        -418622.14       UNSATURATED ZONE =         -18801.02
       SATURATED ZONE =         -46345.02         SATURATED ZONE =          -2990.81

 OVERALL BUDGET ERROR =          -1481.21           BUDGET ERROR =            -80.66


  PERCENT DISCREPANCY =             -0.20    PERCENT DISCREPANCY =             -0.18



1
 SUMMARY VOLUMETRIC BUDGET FOR GSFLOW 
 DATE: 10 28 1980              CUMULATIVE TIME STEP:      28
 MODFLOW STRESS PERIOD      2     CURRENT TIME STEP:      28     ITERATIONS:       6

 -----------------------------------------------------------------------------------

   CUMULATIVE VOLUMES               L**3   RATES FOR THIS TIME STEP           L**3/T
   ------------------                      ------------------------

                                     IN                                         IN
                                     --                                         --
        PRECIPITATION =        1070899.96          PRECIPITATION =                  
           STREAMFLOW =                               STREAMFLOW =                  
     GW BOUNDARY FLOW =                         GW BOUNDARY FLOW =                  


                                    OUT                                        OUT
                                    ---                                        ---
   EVAPOTRANSPIRATION =         550295.46     EVAPOTRANSPIRATION =          23594.69
           STREAMFLOW =         199841.41             STREAMFLOW =           7989.31
     GW BOUNDARY FLOW =          18165.91       GW BOUNDARY FLOW =            648.81

   INFLOWS - OUTFLOWS =         302597.19     INFLOWS - OUTFLOWS =         -32232.81
             --------                                   --------

 TOTAL STORAGE CHANGE =         304649.95         STORAGE CHANGE =         -32145.85
       --------------                             --------------
         LAND SURFACE =          24622.16           LAND SURFACE =         -30947.62
            SOIL ZONE =         896170.03              SOIL ZONE =          20269.35
     UNSATURATED ZONE =        -547225.26       UNSATURATED ZONE =         -17994.12
       SATURATED ZONE =         -68916.98         SATURATED ZONE =          -3473.45

 OVERALL BUDGET ERROR =          -2052.76           BUDGET ERROR =            -86.96


  PERCENT DISCREPANCY =             -0.19    PERCENT DISCREPANCY =             -0.27



1
 SUMMARY VOLUMETRIC BUDGET FOR GSFLOW 
 DATE: 11 04 1980              CUMULATIVE TIME STEP:      35
 MODFLOW STRESS PERIOD      2     CURRENT TIME STEP:      35     ITERATIONS:       8

 -----------------------------------------------------------------------------------

   CUMULATIVE VOLUMES               L**3   RATES FOR THIS TIME STEP           L**3/T
   ------------------                      ------------------------

                                     IN                                         IN
                                     --                                         --
        PRECIPITATION =        1070899.96          PRECIPITATION =                  
           STREAMFLOW =                               STREAMFLOW =                  
     GW BOUNDARY FLOW =                         GW BOUNDARY FLOW =                  


                                    OUT                                        OUT
                                    ---                                        ---
   EVAPOTRANSPIRATION =         825642.51     EVAPOTRANSPIRATION =          34461.60
           STREAMFLOW =         252309.26             STREAMFLOW =           7018.30
     GW BOUNDARY FLOW =          22706.92       GW BOUNDARY FLOW =            648.64

   INFLOWS - OUTFLOWS =         -29758.72     INFLOWS - OUTFLOWS =         -42128.55
             --------                                   --------

 TOTAL STORAGE CHANGE =         -27215.84         STORAGE CHANGE =         -42066.52
       --------------                             --------------
         LAND SURFACE =                             LAND SURFACE =                  
            SOIL ZONE =         739541.09              SOIL ZONE =         -20540.54
     UNSATURATED ZONE =        -670653.07       UNSATURATED ZONE =         -17361.09
       SATURATED ZONE =         -96103.86         SATURATED ZONE =          -4164.90

 OVERALL BUDGET ERROR =          -2542.88           BUDGET ERROR =            -62.02


  PERCENT DISCREPANCY =             -0.23    PERCENT DISCREPANCY =             -0.15



1
 SUMMARY VOLUMETRIC BUDGET FOR GSFLOW 
 DATE: 11 11 1980              CUMULATIVE TIME STEP:      42
 MODFLOW STRESS PERIOD      2     CURRENT TIME STEP:      42     ITERATIONS:       7

 -----------------------------------------------------------------------------------

   CUMULATIVE VOLUMES               L**3   RATES FOR THIS TIME STEP           L**3/T
   ------------------                      ------------------------

                                     IN                                         IN
                                     --                                         --
        PRECIPITATION =        1573759.34          PRECIPITATION =         255182.10
           STREAMFLOW =                               STREAMFLOW =                  
     GW BOUNDARY FLOW =                         GW BOUNDARY FLOW =                  


                                    OUT                                        OUT
                                    ---                                        ---
   EVAPOTRANSPIRATION =        1024605.34     EVAPOTRANSPIRATION =          14644.16
           STREAMFLOW =         308285.59             STREAMFLOW =          10773.55
     GW BOUNDARY FLOW =          27247.64       GW BOUNDARY FLOW =            648.84

   INFLOWS - OUTFLOWS =         213620.77     INFLOWS - OUTFLOWS =         229115.55
             --------                                   --------

 TOTAL STORAGE CHANGE =         216709.36         STORAGE CHANGE =         229180.40
       --------------                             --------------
         LAND SURFACE =          78611.70           LAND SURFACE =          76658.21
            SOIL ZONE =        1053403.47              SOIL ZONE =         173145.70
     UNSATURATED ZONE =        -789255.25       UNSATURATED ZONE =         -16535.16
       SATURATED ZONE =        -126050.56         SATURATED ZONE =          -4088.35

 OVERALL BUDGET ERROR =          -3088.59           BUDGET ERROR =            -64.85


  PERCENT DISCREPANCY =             -0.20    PERCENT DISCREPANCY =             -0.03



1
 SUMMARY VOLUMETRIC BUDGET FOR GSFLOW 
 DATE: 11 18 1980              CUMULATIVE TIME STEP:      49
 MODFLOW STRESS PERIOD      2     CURRENT TIME STEP:      49     ITERATIONS:       7

 -----------------------------------------------------------------------------------

   CUMULATIVE VOLUMES               L**3   RATES FOR THIS TIME STEP           L**3/T
   ------------------                      ------------------------

                                     IN                                         IN
                                     --                                         --
        PRECIPITATION =        1573759.34          PRECIPITATION =                  
           STREAMFLOW =                               STREAMFLOW =                  
     GW BOUNDARY FLOW =                         GW BOUNDARY FLOW =                  


                                    OUT                                        OUT
                                    ---                                        ---
   EVAPOTRANSPIRATION =        1113096.73     EVAPOTRANSPIRATION =          16687.24
           STREAMFLOW =         371226.75             STREAMFLOW =           9364.76
     GW BOUNDARY FLOW =          31789.52       GW BOUNDARY FLOW =            648.86

   INFLOWS - OUTFLOWS =          57646.34     INFLOWS - OUTFLOWS =         -26700.86
             --------                                   --------

 TOTAL STORAGE CHANGE =          61343.07         STORAGE CHANGE =         -26624.86
       --------------                             --------------
         LAND SURFACE =           8650.47           LAND SURFACE =          -6201.94
            SOIL ZONE =        1114558.55              SOIL ZONE =            417.38
     UNSATURATED ZONE =        -903157.87       UNSATURATED ZONE =         -16016.23
       SATURATED ZONE =        -158708.08         SATURATED ZONE =          -4824.06

 OVERALL BUDGET ERROR =          -3696.72           BUDGET ERROR =            -76.00


  PERCENT DISCREPANCY =             -0.23    PERCENT DISCREPANCY =             -0.29



1
 SUMMARY VOLUMETRIC BUDGET FOR GSFLOW 
 DATE: 11 25 1980              CUMULATIVE TIME STEP:      56
 MODFLOW STRESS PERIOD      2     CURRENT TIME STEP:      56     ITERATIONS:       8

 -----------------------------------------------------------------------------------

   CUMULATIVE VOLUMES               L**3   RATES FOR THIS TIME STEP           L**3/T
   ------------------                      ------------------------

                                     IN                                         IN
                                     --                                         --
        PRECIPITATION =        1648813.76          PRECIPITATION =                  
           STREAMFLOW =                               STREAMFLOW =                  
     GW BOUNDARY FLOW =                         GW BOUNDARY FLOW =                  


                                    OUT                                        OUT
                                    ---                                        ---
   EVAPOTRANSPIRATION =        1185739.53     EVAPOTRANSPIRATION =           8792.39
           STREAMFLOW =         438530.09             STREAMFLOW =           9976.04
     GW BOUNDARY FLOW =          36331.82       GW BOUNDARY FLOW =            648.94

   INFLOWS - OUTFLOWS =         -11787.68     INFLOWS - OUTFLOWS =         -19417.36
             --------                                   --------

 TOTAL STORAGE CHANGE =          -7556.68         STORAGE CHANGE =         -19352.67
       --------------                             --------------
         LAND SURFACE =          55166.56           LAND SURFACE =          -8744.72
            SOIL ZONE =        1144796.84              SOIL ZONE =          10127.63
     UNSATURATED ZONE =       -1012779.27       UNSATURATED ZONE =         -15404.83
       SATURATED ZONE =        -194740.82         SATURATED ZONE =          -5330.74

 OVERALL BUDGET ERROR =          -4231.00           BUDGET ERROR =            -64.69


  PERCENT DISCREPANCY =             -0.26    PERCENT DISCREPANCY =             -0.33



1
 SUMMARY VOLUMETRIC BUDGET FOR GSFLOW 
 DATE: 12 02 1980              CUMULATIVE TIME STEP:      63
 MODFLOW STRESS PERIOD      2     CURRENT TIME STEP:      63     ITERATIONS:       8

 -----------------------------------------------------------------------------------

   CUMULATIVE VOLUMES               L**3   RATES FOR THIS TIME STEP           L**3/T
   ------------------                      ------------------------

                                     IN                                         IN
                                     --                                         --
        PRECIPITATION =        2076620.74          PRECIPITATION =                  
           STREAMFLOW =                               STREAMFLOW =                  
     GW BOUNDARY FLOW =                         GW BOUNDARY FLOW =                  


                                    OUT                                        OUT
                                    ---                                        ---
   EVAPOTRANSPIRATION =        1375200.54     EVAPOTRANSPIRATION =          33951.64
           STREAMFLOW =         523918.91             STREAMFLOW =          15367.19
     GW BOUNDARY FLOW =          40875.80       GW BOUNDARY FLOW =            649.45

   INFLOWS - OUTFLOWS =         136625.49     INFLOWS - OUTFLOWS =         -49968.28
             --------                                   --------

 TOTAL STORAGE CHANGE =         141299.02         STORAGE CHANGE =         -49916.56
       --------------                             --------------
         LAND SURFACE =         152558.40           LAND SURFACE =         -75202.38
            SOIL ZONE =        1333556.69              SOIL ZONE =          42838.25
     UNSATURATED ZONE =       -1114204.05       UNSATURATED ZONE =         -12954.84
       SATURATED ZONE =        -230612.03         SATURATED ZONE =          -4597.59

 OVERALL BUDGET ERROR =          -4673.53           BUDGET ERROR =            -51.72


  PERCENT DISCREPANCY =             -0.22    PERCENT DISCREPANCY =             -0.10



1
 SUMMARY VOLUMETRIC BUDGET FOR GSFLOW 
 DATE: 12 09 1980              CUMULATIVE TIME STEP:      70
 MODFLOW STRESS PERIOD      2     CURRENT TIME STEP:      70     ITERATIONS:       8

 -----------------------------------------------------------------------------------

   CUMULATIVE VOLUMES               L**3   RATES FOR THIS TIME STEP           L**3/T
   ------------------                      ------------------------

                                     IN                                         IN
                                     --                                         --
        PRECIPITATION =        4284363.13          PRECIPITATION =                  
           STREAMFLOW =                               STREAMFLOW =                  
     GW BOUNDARY FLOW =                         GW BOUNDARY FLOW =                  


                                    OUT                                        OUT
                                    ---                                        ---
   EVAPOTRANSPIRATION =        1398619.18     EVAPOTRANSPIRATION =           2942.37
           STREAMFLOW =         624564.00             STREAMFLOW =          14710.25
     GW BOUNDARY FLOW =          45422.80       GW BOUNDARY FLOW =            649.67

   INFLOWS - OUTFLOWS =        2215757.14     INFLOWS - OUTFLOWS =         -18302.29
             --------                                   --------

 TOTAL STORAGE CHANGE =        2220889.52         STORAGE CHANGE =         -18250.44
       --------------                             --------------
         LAND SURFACE =        2335225.13           LAND SURFACE =          -2942.37
            SOIL ZONE =        1367909.47              SOIL ZONE =           4916.99
     UNSATURATED ZONE =       -1212490.79       UNSATURATED ZONE =         -14224.57
       SATURATED ZONE =        -269754.29         SATURATED ZONE =          -6000.49

 OVERALL BUDGET ERROR =          -5132.38           BUDGET ERROR =            -51.85


  PERCENT DISCREPANCY =             -0.12    PERCENT DISCREPANCY =             -0.28



1
 SUMMARY VOLUMETRIC BUDGET FOR GSFLOW 
 DATE: 12 16 1980              CUMULATIVE TIME STEP:      77
 MODFLOW STRESS PERIOD      2     CURRENT TIME STEP:      77     ITERATIONS:       7

 -----------------------------------------------------------------------------------

   CUMULATIVE VOLUMES               L**3   RATES FOR THIS TIME STEP           L**3/T
   ------------------                      ------------------------

                                     IN                                         IN
                                     --                                         --
        PRECIPITATION =        4284363.13          PRECIPITATION =                  
           STREAMFLOW =                               STREAMFLOW =                  
     GW BOUNDARY FLOW =                         GW BOUNDARY FLOW =                  


                                    OUT                                        OUT
                                    ---                                        ---
   EVAPOTRANSPIRATION =        1540613.33     EVAPOTRANSPIRATION =          33883.45
           STREAMFLOW =         746419.18             STREAMFLOW =          25215.58
     GW BOUNDARY FLOW =          49971.61       GW BOUNDARY FLOW =            650.27

   INFLOWS - OUTFLOWS =        1947359.01     INFLOWS - OUTFLOWS =         -59749.31
             --------                                   --------

 TOTAL STORAGE CHANGE =        1952923.22         STORAGE CHANGE =         -59684.48
       --------------                             --------------
         LAND SURFACE =        2023963.99           LAND SURFACE =        -129017.63
            SOIL ZONE =        1541233.29              SOIL ZONE =          82702.34
     UNSATURATED ZONE =       -1302225.81       UNSATURATED ZONE =          -8985.82
       SATURATED ZONE =        -310048.26         SATURATED ZONE =          -4383.37

 OVERALL BUDGET ERROR =          -5564.21           BUDGET ERROR =            -64.82


  PERCENT DISCREPANCY =             -0.13    PERCENT DISCREPANCY =             -0.11



1
 SUMMARY VOLUMETRIC BUDGET FOR GSFLOW 
 DATE: 12 23 1980              CUMULATIVE TIME STEP:      84
 MODFLOW STRESS PERIOD      2     CURRENT TIME STEP:      84     ITERATIONS:       9

 -----------------------------------------------------------------------------------

   CUMULATIVE VOLUMES               L**3   RATES FOR THIS TIME STEP           L**3/T
   ------------------                      ------------------------

                                     IN                                         IN
                                     --                                         --
        PRECIPITATION =        4516755.31          PRECIPITATION =                  
           STREAMFLOW =                               STREAMFLOW =                  
     GW BOUNDARY FLOW =                         GW BOUNDARY FLOW =                  


                                    OUT                                        OUT
                                    ---                                        ---
   EVAPOTRANSPIRATION =        1746654.78     EVAPOTRANSPIRATION =          35140.80
           STREAMFLOW =         975455.81             STREAMFLOW =          30478.87
     GW BOUNDARY FLOW =          54532.14       GW BOUNDARY FLOW =            651.94

   INFLOWS - OUTFLOWS =        1740112.58     INFLOWS - OUTFLOWS =         -66271.60
             --------                                   --------

 TOTAL STORAGE CHANGE =        1745995.75         STORAGE CHANGE =         -66233.36
       --------------                             --------------
         LAND SURFACE =        1433308.52           LAND SURFACE =         -48192.94
            SOIL ZONE =        1993515.85              SOIL ZONE =          -8131.44
     UNSATURATED ZONE =       -1342652.81       UNSATURATED ZONE =          -5276.01
       SATURATED ZONE =        -338175.81         SATURATED ZONE =          -4632.96

 OVERALL BUDGET ERROR =          -5883.17           BUDGET ERROR =            -38.25


  PERCENT DISCREPANCY =             -0.13    PERCENT DISCREPANCY =             -0.06



1
 SUMMARY VOLUMETRIC BUDGET FOR GSFLOW 
 DATE: 12 30 1980              CUMULATIVE TIME STEP:      91
 MODFLOW STRESS PERIOD      2     CURRENT TIME STEP:      91     ITERATIONS:      11

 -----------------------------------------------------------------------------------

   CUMULATIVE VOLUMES               L**3   RATES FOR THIS TIME STEP           L**3/T
   ------------------                      ------------------------

                                     IN                                         IN
                                     --                                         --
        PRECIPITATION =        4516755.31          PRECIPITATION =                  
           STREAMFLOW =                               STREAMFLOW =                  
     GW BOUNDARY FLOW =                         GW BOUNDARY FLOW =                  


                                    OUT                                        OUT
                                    ---                                        ---
   EVAPOTRANSPIRATION =        2107281.14     EVAPOTRANSPIRATION =          45887.39
           STREAMFLOW =        1224087.14             STREAMFLOW =          27636.23
     GW BOUNDARY FLOW =          59099.13       GW BOUNDARY FLOW =            652.41

   INFLOWS - OUTFLOWS =        1126287.91     INFLOWS - OUTFLOWS =         -74176.03
             --------                                   --------

 TOTAL STORAGE CHANGE =        1132342.09         STORAGE CHANGE =         -74147.39
       --------------                             --------------
         LAND SURFACE =         641176.37           LAND SURFACE =         -40371.69
            SOIL ZONE =        2204226.56              SOIL ZONE =         -24670.09
     UNSATURATED ZONE =       -1350200.51       UNSATURATED ZONE =          -4993.48
       SATURATED ZONE =        -362860.33         SATURATED ZONE =          -4112.13

 OVERALL BUDGET ERROR =          -6054.17           BUDGET ERROR =            -28.64


  PERCENT DISCREPANCY =             -0.13    PERCENT DISCREPANCY =             -0.04



1
 SUMMARY VOLUMETRIC BUDGET FOR GSFLOW 
 DATE: 01 06 1981              CUMULATIVE TIME STEP:      98
 MODFLOW STRESS PERIOD      2     CURRENT TIME STEP:      98     ITERATIONS:       8

 -----------------------------------------------------------------------------------

   CUMULATIVE VOLUMES               L**3   RATES FOR THIS TIME STEP           L**3/T
   ------------------                      ------------------------

                                     IN                                         IN
                                     --                                         --
        PRECIPITATION =        5004445.82          PRECIPITATION =                  
           STREAMFLOW =                               STREAMFLOW =                  
     GW BOUNDARY FLOW =                         GW BOUNDARY FLOW =                  


                                    OUT                                        OUT
                                    ---                                        ---
   EVAPOTRANSPIRATION =        2335203.28     EVAPOTRANSPIRATION =          21388.47
           STREAMFLOW =        1379692.58             STREAMFLOW =          21364.63
     GW BOUNDARY FLOW =          63660.90       GW BOUNDARY FLOW =            651.28

   INFLOWS - OUTFLOWS =        1225889.06     INFLOWS - OUTFLOWS =         -43404.38
             --------                                   --------

 TOTAL STORAGE CHANGE =        1232154.80         STORAGE CHANGE =         -43366.98
       --------------                             --------------
         LAND SURFACE =         837061.68           LAND SURFACE =         -30417.13
            SOIL ZONE =        2210260.58              SOIL ZONE =           2615.40
     UNSATURATED ZONE =       -1415108.83       UNSATURATED ZONE =          -9926.61
       SATURATED ZONE =        -400058.64         SATURATED ZONE =          -5638.64

 OVERALL BUDGET ERROR =          -6265.74           BUDGET ERROR =            -37.39


  PERCENT DISCREPANCY =             -0.13    PERCENT DISCREPANCY =             -0.09



1
 SUMMARY VOLUMETRIC BUDGET FOR GSFLOW 
 DATE: 01 13 1981              CUMULATIVE TIME STEP:     105
 MODFLOW STRESS PERIOD      2     CURRENT TIME STEP:     105     ITERATIONS:       7

 -----------------------------------------------------------------------------------

   CUMULATIVE VOLUMES               L**3   RATES FOR THIS TIME STEP           L**3/T
   ------------------                      ------------------------

                                     IN                                         IN
                                     --                                         --
        PRECIPITATION =        5004445.82          PRECIPITATION =                  
           STREAMFLOW =                               STREAMFLOW =                  
     GW BOUNDARY FLOW =                         GW BOUNDARY FLOW =                  


                                    OUT                                        OUT
                                    ---                                        ---
   EVAPOTRANSPIRATION =        2552715.55     EVAPOTRANSPIRATION =          44453.51
           STREAMFLOW =        1528624.34             STREAMFLOW =          20147.73
     GW BOUNDARY FLOW =          68218.18       GW BOUNDARY FLOW =            650.85

   INFLOWS - OUTFLOWS =         854887.74     INFLOWS - OUTFLOWS =         -65252.09
             --------                                   --------

 TOTAL STORAGE CHANGE =         861520.64         STORAGE CHANGE =         -65188.76
       --------------                             --------------
         LAND SURFACE =         626703.68           LAND SURFACE =         -38989.03
            SOIL ZONE =        2156525.43              SOIL ZONE =         -10598.04
     UNSATURATED ZONE =       -1478923.09       UNSATURATED ZONE =          -9118.95
       SATURATED ZONE =        -442785.38         SATURATED ZONE =          -6482.74

 OVERALL BUDGET ERROR =          -6632.89           BUDGET ERROR =            -63.33


  PERCENT DISCREPANCY =             -0.13    PERCENT DISCREPANCY =             -0.10



1
 SUMMARY VOLUMETRIC BUDGET FOR GSFLOW 
 DATE: 01 20 1981              CUMULATIVE TIME STEP:     112
 MODFLOW STRESS PERIOD      2     CURRENT TIME STEP:     112     ITERATIONS:       7

 -----------------------------------------------------------------------------------

   CUMULATIVE VOLUMES               L**3   RATES FOR THIS TIME STEP           L**3/T
   ------------------                      ------------------------

                                     IN                                         IN
                                     --                                         --
        PRECIPITATION =        5170468.48          PRECIPITATION =          41503.16
           STREAMFLOW =                               STREAMFLOW =                  
     GW BOUNDARY FLOW =                         GW BOUNDARY FLOW =                  


                                    OUT                                        OUT
                                    ---                                        ---
   EVAPOTRANSPIRATION =        2833961.00     EVAPOTRANSPIRATION =          34835.33
           STREAMFLOW =        1671196.28             STREAMFLOW =          20265.05
     GW BOUNDARY FLOW =          72773.11       GW BOUNDARY FLOW =            650.66

   INFLOWS - OUTFLOWS =         592538.09     INFLOWS - OUTFLOWS =         -14247.88
             --------                                   --------

 TOTAL STORAGE CHANGE =         599494.72         STORAGE CHANGE =         -14195.69
       --------------                             --------------
         LAND SURFACE =         436309.37           LAND SURFACE =           4324.83
            SOIL ZONE =        2159450.62              SOIL ZONE =         -10245.52
     UNSATURATED ZONE =       -1509546.64       UNSATURATED ZONE =          -1780.72
       SATURATED ZONE =        -486718.63         SATURATED ZONE =          -6494.28

 OVERALL BUDGET ERROR =          -6956.62           BUDGET ERROR =            -52.19


  PERCENT DISCREPANCY =             -0.13    PERCENT DISCREPANCY =             -0.09



1
 SUMMARY VOLUMETRIC BUDGET FOR GSFLOW 
 DATE: 01 27 1981              CUMULATIVE TIME STEP:     119
 MODFLOW STRESS PERIOD      2     CURRENT TIME STEP:     119     ITERATIONS:       9

 -----------------------------------------------------------------------------------

   CUMULATIVE VOLUMES               L**3   RATES FOR THIS TIME STEP           L**3/T
   ------------------                      ------------------------

                                     IN                                         IN
                                     --                                         --
        PRECIPITATION =        8646542.90          PRECIPITATION =        2936504.96
           STREAMFLOW =                               STREAMFLOW =                  
     GW BOUNDARY FLOW =                         GW BOUNDARY FLOW =                  


                                    OUT                                        OUT
                                    ---                                        ---
   EVAPOTRANSPIRATION =        3067726.85     EVAPOTRANSPIRATION =          13121.10
           STREAMFLOW =        1817589.05             STREAMFLOW =          18746.99
     GW BOUNDARY FLOW =          77327.59       GW BOUNDARY FLOW =            650.46

   INFLOWS - OUTFLOWS =        3683899.42     INFLOWS - OUTFLOWS =        2903986.42
             --------                                   --------

 TOTAL STORAGE CHANGE =        3691037.44         STORAGE CHANGE =        2904010.40
       --------------                             --------------
         LAND SURFACE =        3540208.69           LAND SURFACE =        2923350.57
            SOIL ZONE =        2180484.94              SOIL ZONE =          -7829.41
     UNSATURATED ZONE =       -1498405.37       UNSATURATED ZONE =          -4760.28
       SATURATED ZONE =        -531250.82         SATURATED ZONE =          -6750.47

 OVERALL BUDGET ERROR =          -7138.02           BUDGET ERROR =            -23.98


  PERCENT DISCREPANCY =             -0.08    PERCENT DISCREPANCY =             -0.00



1
 SUMMARY VOLUMETRIC BUDGET FOR GSFLOW 
 DATE: 02 03 1981              CUMULATIVE TIME STEP:     126
 MODFLOW STRESS PERIOD      2     CURRENT TIME STEP:     126     ITERATIONS:       9

 -----------------------------------------------------------------------------------

   CUMULATIVE VOLUMES               L**3   RATES FOR THIS TIME STEP           L**3/T
   ------------------                      ------------------------

                                     IN                                         IN
                                     --                                         --
        PRECIPITATION =        1.1739D+07          PRECIPITATION =                  
           STREAMFLOW =                               STREAMFLOW =                  
     GW BOUNDARY FLOW =                         GW BOUNDARY FLOW =                  


                                    OUT                                        OUT
                                    ---                                        ---
   EVAPOTRANSPIRATION =        3104239.74     EVAPOTRANSPIRATION =           6975.55
           STREAMFLOW =        1944596.46             STREAMFLOW =          18014.56
     GW BOUNDARY FLOW =          81879.76       GW BOUNDARY FLOW =            650.26

   INFLOWS - OUTFLOWS =        6607981.82     INFLOWS - OUTFLOWS =         -25640.37
             --------                                   --------

 TOTAL STORAGE CHANGE =        6615272.80         STORAGE CHANGE =         -25621.13
       --------------                             --------------
         LAND SURFACE =        6595850.65           LAND SURFACE =          -6975.55
            SOIL ZONE =        2169045.36              SOIL ZONE =            422.18
     UNSATURATED ZONE =       -1567281.36       UNSATURATED ZONE =         -11421.04
       SATURATED ZONE =        -582341.86         SATURATED ZONE =          -7646.71

 OVERALL BUDGET ERROR =          -7290.97           BUDGET ERROR =            -19.24


  PERCENT DISCREPANCY =             -0.06    PERCENT DISCREPANCY =             -0.08



1
 SUMMARY VOLUMETRIC BUDGET FOR GSFLOW 
 DATE: 02 10 1981              CUMULATIVE TIME STEP:     133
 MODFLOW STRESS PERIOD      2     CURRENT TIME STEP:     133     ITERATIONS:       8

 -----------------------------------------------------------------------------------

   CUMULATIVE VOLUMES               L**3   RATES FOR THIS TIME STEP           L**3/T
   ------------------                      ------------------------

                                     IN                                         IN
                                     --                                         --
        PRECIPITATION =        1.1838D+07          PRECIPITATION =                  
           STREAMFLOW =                               STREAMFLOW =                  
     GW BOUNDARY FLOW =                         GW BOUNDARY FLOW =                  


                                    OUT                                        OUT
                                    ---                                        ---
   EVAPOTRANSPIRATION =        3229640.98     EVAPOTRANSPIRATION =          32880.24
           STREAMFLOW =        2070922.78             STREAMFLOW =          18067.59
     GW BOUNDARY FLOW =          86431.55       GW BOUNDARY FLOW =            650.25

   INFLOWS - OUTFLOWS =        6451267.92     INFLOWS - OUTFLOWS =         -51598.07
             --------                                   --------

 TOTAL STORAGE CHANGE =        6458852.20         STORAGE CHANGE =         -51558.88
       --------------                             --------------
         LAND SURFACE =        6570014.87           LAND SURFACE =         -32880.24
            SOIL ZONE =        2173200.87              SOIL ZONE =            574.29
     UNSATURATED ZONE =       -1645800.06       UNSATURATED ZONE =         -10839.28
       SATURATED ZONE =        -638563.48         SATURATED ZONE =          -8413.66

 OVERALL BUDGET ERROR =          -7584.28           BUDGET ERROR =            -39.19


  PERCENT DISCREPANCY =             -0.06    PERCENT DISCREPANCY =             -0.08



1
 SUMMARY VOLUMETRIC BUDGET FOR GSFLOW 
 DATE: 02 17 1981              CUMULATIVE TIME STEP:     140
 MODFLOW STRESS PERIOD      2     CURRENT TIME STEP:     140     ITERATIONS:      14

 -----------------------------------------------------------------------------------

   CUMULATIVE VOLUMES               L**3   RATES FOR THIS TIME STEP           L**3/T
   ------------------                      ------------------------

                                     IN                                         IN
                                     --                                         --
        PRECIPITATION =        1.2765D+07          PRECIPITATION =          68928.68
           STREAMFLOW =                               STREAMFLOW =                  
     GW BOUNDARY FLOW =                         GW BOUNDARY FLOW =                  


                                    OUT                                        OUT
                                    ---                                        ---
   EVAPOTRANSPIRATION =        3567730.53     EVAPOTRANSPIRATION =          68604.82
           STREAMFLOW =        2616642.78             STREAMFLOW =         125632.84
     GW BOUNDARY FLOW =          91005.53       GW BOUNDARY FLOW =            656.87

   INFLOWS - OUTFLOWS =        6489601.82     INFLOWS - OUTFLOWS =        -125965.86
             --------                                   --------

 TOTAL STORAGE CHANGE =        6497463.43         STORAGE CHANGE =        -125950.25
       --------------                             --------------
         LAND SURFACE =        5590136.74           LAND SURFACE =        -278668.69
            SOIL ZONE =        2961557.38              SOIL ZONE =          72154.94
     UNSATURATED ZONE =       -1400025.24       UNSATURATED ZONE =          77980.54
       SATURATED ZONE =        -654205.45         SATURATED ZONE =           2582.96

 OVERALL BUDGET ERROR =          -7861.61           BUDGET ERROR =            -15.61


  PERCENT DISCREPANCY =             -0.06    PERCENT DISCREPANCY =             -0.01



1
 SUMMARY VOLUMETRIC BUDGET FOR GSFLOW 
 DATE: 02 24 1981              CUMULATIVE TIME STEP:     147
 MODFLOW STRESS PERIOD      2     CURRENT TIME STEP:     147     ITERATIONS:      14

 -----------------------------------------------------------------------------------

   CUMULATIVE VOLUMES               L**3   RATES FOR THIS TIME STEP           L**3/T
   ------------------                      ------------------------

                                     IN                                         IN
                                     --                                         --
        PRECIPITATION =        1.3179D+07          PRECIPITATION =         344647.71
           STREAMFLOW =                               STREAMFLOW =                  
     GW BOUNDARY FLOW =                         GW BOUNDARY FLOW =                  


                                    OUT                                        OUT
                                    ---                                        ---
   EVAPOTRANSPIRATION =        3909052.80     EVAPOTRANSPIRATION =          18832.86
           STREAMFLOW =        3176707.69             STREAMFLOW =          52178.36
     GW BOUNDARY FLOW =          95598.80       GW BOUNDARY FLOW =            655.15

   INFLOWS - OUTFLOWS =        5997199.16     INFLOWS - OUTFLOWS =         272981.33
             --------                                   --------

 TOTAL STORAGE CHANGE =        6005009.54         STORAGE CHANGE =         272974.01
       --------------                             --------------
         LAND SURFACE =        4984331.51           LAND SURFACE =         286391.25
            SOIL ZONE =        2698056.45              SOIL ZONE =         -43395.72
     UNSATURATED ZONE =       -1047500.80       UNSATURATED ZONE =          27556.38
       SATURATED ZONE =        -629877.63         SATURATED ZONE =           2422.10

 OVERALL BUDGET ERROR =          -7810.38           BUDGET ERROR =              7.32


  PERCENT DISCREPANCY =             -0.06    PERCENT DISCREPANCY =              0.00



1
 SUMMARY VOLUMETRIC BUDGET FOR GSFLOW 
 DATE: 03 03 1981              CUMULATIVE TIME STEP:     154
 MODFLOW STRESS PERIOD      2     CURRENT TIME STEP:     154     ITERATIONS:      11

 -----------------------------------------------------------------------------------

   CUMULATIVE VOLUMES               L**3   RATES FOR THIS TIME STEP           L**3/T
   ------------------                      ------------------------

                                     IN                                         IN
                                     --                                         --
        PRECIPITATION =        1.3447D+07          PRECIPITATION =                  
           STREAMFLOW =                               STREAMFLOW =                  
     GW BOUNDARY FLOW =                         GW BOUNDARY FLOW =                  


                                    OUT                                        OUT
                                    ---                                        ---
   EVAPOTRANSPIRATION =        4069734.40     EVAPOTRANSPIRATION =          45353.37
           STREAMFLOW =        3401065.41             STREAMFLOW =          27807.67
     GW BOUNDARY FLOW =         100171.78       GW BOUNDARY FLOW =            652.32

   INFLOWS - OUTFLOWS =        5875647.20     INFLOWS - OUTFLOWS =         -73813.37
             --------                                   --------

 TOTAL STORAGE CHANGE =        5883340.80         STORAGE CHANGE =         -73835.09
       --------------                             --------------
         LAND SURFACE =        5068234.96           LAND SURFACE =         -66032.09
            SOIL ZONE =        2489680.69              SOIL ZONE =           2862.50
     UNSATURATED ZONE =       -1041087.13       UNSATURATED ZONE =          -8837.27
       SATURATED ZONE =        -633487.72         SATURATED ZONE =          -1828.23

 OVERALL BUDGET ERROR =          -7693.61           BUDGET ERROR =             21.72


  PERCENT DISCREPANCY =             -0.06    PERCENT DISCREPANCY =              0.03



1
 SUMMARY VOLUMETRIC BUDGET FOR GSFLOW 
 DATE: 03 10 1981              CUMULATIVE TIME STEP:     161
 MODFLOW STRESS PERIOD      2     CURRENT TIME STEP:     161     ITERATIONS:      11

 -----------------------------------------------------------------------------------

   CUMULATIVE VOLUMES               L**3   RATES FOR THIS TIME STEP           L**3/T
   ------------------                      ------------------------

                                     IN                                         IN
                                     --                                         --
        PRECIPITATION =        1.3493D+07          PRECIPITATION =                  
           STREAMFLOW =                               STREAMFLOW =                  
     GW BOUNDARY FLOW =                         GW BOUNDARY FLOW =                  


                                    OUT                                        OUT
                                    ---                                        ---
   EVAPOTRANSPIRATION =        4415516.84     EVAPOTRANSPIRATION =          72809.14
           STREAMFLOW =        3637381.67             STREAMFLOW =          43703.17
     GW BOUNDARY FLOW =         104737.89       GW BOUNDARY FLOW =            652.94

   INFLOWS - OUTFLOWS =        5335318.11     INFLOWS - OUTFLOWS =        -117165.26
             --------                                   --------

 TOTAL STORAGE CHANGE =        5342932.31         STORAGE CHANGE =        -117177.45
       --------------                             --------------
         LAND SURFACE =        4391776.94           LAND SURFACE =        -169082.62
            SOIL ZONE =        2603674.41              SOIL ZONE =          28965.44
     UNSATURATED ZONE =       -1008075.89       UNSATURATED ZONE =          23164.23
       SATURATED ZONE =        -644443.15         SATURATED ZONE =           -224.50

 OVERALL BUDGET ERROR =          -7614.20           BUDGET ERROR =             12.20


  PERCENT DISCREPANCY =             -0.06    PERCENT DISCREPANCY =              0.01



1
 SUMMARY VOLUMETRIC BUDGET FOR GSFLOW 
 DATE: 03 17 1981              CUMULATIVE TIME STEP:     168
 MODFLOW STRESS PERIOD      2     CURRENT TIME STEP:     168     ITERATIONS:       9

 -----------------------------------------------------------------------------------

   CUMULATIVE VOLUMES               L**3   RATES FOR THIS TIME STEP           L**3/T
   ------------------                      ------------------------

                                     IN                                         IN
                                     --                                         --
        PRECIPITATION =        1.3745D+07          PRECIPITATION =                  
           STREAMFLOW =                               STREAMFLOW =                  
     GW BOUNDARY FLOW =                         GW BOUNDARY FLOW =                  


                                    OUT                                        OUT
                                    ---                                        ---
   EVAPOTRANSPIRATION =        4783921.58     EVAPOTRANSPIRATION =          40234.43
           STREAMFLOW =        3864712.91             STREAMFLOW =          24167.99
     GW BOUNDARY FLOW =         109305.22       GW BOUNDARY FLOW =            651.89

   INFLOWS - OUTFLOWS =        4986563.11     INFLOWS - OUTFLOWS =         -65054.31
             --------                                   --------

 TOTAL STORAGE CHANGE =        4994084.94         STORAGE CHANGE =         -65061.98
       --------------                             --------------
         LAND SURFACE =        4202563.01           LAND SURFACE =         -39897.20
            SOIL ZONE =        2438303.39              SOIL ZONE =          -5420.17
     UNSATURATED ZONE =        -987200.30       UNSATURATED ZONE =         -15770.61
       SATURATED ZONE =        -659581.16         SATURATED ZONE =          -3974.00

 OVERALL BUDGET ERROR =          -7521.84           BUDGET ERROR =              7.67


  PERCENT DISCREPANCY =             -0.05    PERCENT DISCREPANCY =              0.01



1
 SUMMARY VOLUMETRIC BUDGET FOR GSFLOW 
 DATE: 03 24 1981              CUMULATIVE TIME STEP:     175
 MODFLOW STRESS PERIOD      2     CURRENT TIME STEP:     175     ITERATIONS:       9

 -----------------------------------------------------------------------------------

   CUMULATIVE VOLUMES               L**3   RATES FOR THIS TIME STEP           L**3/T
   ------------------                      ------------------------

                                     IN                                         IN
                                     --                                         --
        PRECIPITATION =        1.4367D+07          PRECIPITATION =                  
           STREAMFLOW =                               STREAMFLOW =                  
     GW BOUNDARY FLOW =                         GW BOUNDARY FLOW =                  


                                    OUT                                        OUT
                                    ---                                        ---
   EVAPOTRANSPIRATION =        5139703.84     EVAPOTRANSPIRATION =          87430.63
           STREAMFLOW =        4040696.74             STREAMFLOW =          26839.20
     GW BOUNDARY FLOW =         113865.71       GW BOUNDARY FLOW =            651.46

   INFLOWS - OUTFLOWS =        5072489.94     INFLOWS - OUTFLOWS =        -114921.29
             --------                                   --------

 TOTAL STORAGE CHANGE =        5080032.03         STORAGE CHANGE =        -114924.81
       --------------                             --------------
         LAND SURFACE =        4477883.39           LAND SURFACE =         -65021.85
            SOIL ZONE =        2351054.19              SOIL ZONE =         -41080.97
     UNSATURATED ZONE =       -1057849.74       UNSATURATED ZONE =          -4279.21
       SATURATED ZONE =        -691055.81         SATURATED ZONE =          -4542.77

 OVERALL BUDGET ERROR =          -7542.09           BUDGET ERROR =              3.52


  PERCENT DISCREPANCY =             -0.05    PERCENT DISCREPANCY =              0.00



1
 SUMMARY VOLUMETRIC BUDGET FOR GSFLOW 
 DATE: 03 31 1981              CUMULATIVE TIME STEP:     182
 MODFLOW STRESS PERIOD      2     CURRENT TIME STEP:     182     ITERATIONS:      12

 -----------------------------------------------------------------------------------

   CUMULATIVE VOLUMES               L**3   RATES FOR THIS TIME STEP           L**3/T
   ------------------                      ------------------------

                                     IN                                         IN
                                     --                                         --
        PRECIPITATION =        1.5777D+07          PRECIPITATION =                  
           STREAMFLOW =                               STREAMFLOW =                  
     GW BOUNDARY FLOW =                         GW BOUNDARY FLOW =                  


                                    OUT                                        OUT
                                    ---                                        ---
   EVAPOTRANSPIRATION =        5569634.61     EVAPOTRANSPIRATION =          54089.89
           STREAMFLOW =        4549952.37             STREAMFLOW =          37149.49
     GW BOUNDARY FLOW =         118447.78       GW BOUNDARY FLOW =            653.61

   INFLOWS - OUTFLOWS =        5538731.43     INFLOWS - OUTFLOWS =         -91892.99
             --------                                   --------

 TOTAL STORAGE CHANGE =        5546215.56         STORAGE CHANGE =         -91917.85
       --------------                             --------------
         LAND SURFACE =        4494493.36           LAND SURFACE =         -55486.84
            SOIL ZONE =        2547516.48              SOIL ZONE =         -41726.56
     UNSATURATED ZONE =        -813413.28       UNSATURATED ZONE =           5911.76
       SATURATED ZONE =        -682381.00         SATURATED ZONE =           -616.22

 OVERALL BUDGET ERROR =          -7484.13           BUDGET ERROR =             24.86


  PERCENT DISCREPANCY =             -0.05    PERCENT DISCREPANCY =              0.03



1
 SUMMARY VOLUMETRIC BUDGET FOR GSFLOW 
 DATE: 04 07 1981              CUMULATIVE TIME STEP:     189
 MODFLOW STRESS PERIOD      2     CURRENT TIME STEP:     189     ITERATIONS:      10

 -----------------------------------------------------------------------------------

   CUMULATIVE VOLUMES               L**3   RATES FOR THIS TIME STEP           L**3/T
   ------------------                      ------------------------

                                     IN                                         IN
                                     --                                         --
        PRECIPITATION =        1.6121D+07          PRECIPITATION =                  
           STREAMFLOW =                               STREAMFLOW =                  
     GW BOUNDARY FLOW =                         GW BOUNDARY FLOW =                  


                                    OUT                                        OUT
                                    ---                                        ---
   EVAPOTRANSPIRATION =        6195698.74     EVAPOTRANSPIRATION =         103842.76
           STREAMFLOW =        4868559.12             STREAMFLOW =          43443.96
     GW BOUNDARY FLOW =         123023.12       GW BOUNDARY FLOW =            653.74

   INFLOWS - OUTFLOWS =        4934202.17     INFLOWS - OUTFLOWS =        -147940.46
             --------                                   --------

 TOTAL STORAGE CHANGE =        4941572.65         STORAGE CHANGE =        -147963.31
       --------------                             --------------
         LAND SURFACE =        3870392.88           LAND SURFACE =        -138669.71
            SOIL ZONE =        2478838.45              SOIL ZONE =         -20344.20
     UNSATURATED ZONE =        -729514.09       UNSATURATED ZONE =          10700.77
       SATURATED ZONE =        -678144.60         SATURATED ZONE =            349.83

 OVERALL BUDGET ERROR =          -7370.47           BUDGET ERROR =             22.85


  PERCENT DISCREPANCY =             -0.05    PERCENT DISCREPANCY =              0.02



1
 SUMMARY VOLUMETRIC BUDGET FOR GSFLOW 
 DATE: 04 14 1981              CUMULATIVE TIME STEP:     196
 MODFLOW STRESS PERIOD      2     CURRENT TIME STEP:     196     ITERATIONS:      13

 -----------------------------------------------------------------------------------

   CUMULATIVE VOLUMES               L**3   RATES FOR THIS TIME STEP           L**3/T
   ------------------                      ------------------------

                                     IN                                         IN
                                     --                                         --
        PRECIPITATION =        1.6121D+07          PRECIPITATION =                  
           STREAMFLOW =                               STREAMFLOW =                  
     GW BOUNDARY FLOW =                         GW BOUNDARY FLOW =                  


                                    OUT                                        OUT
                                    ---                                        ---
   EVAPOTRANSPIRATION =        7106388.48     EVAPOTRANSPIRATION =         191910.02
           STREAMFLOW =        5196086.31             STREAMFLOW =          55527.41
     GW BOUNDARY FLOW =         127598.55       GW BOUNDARY FLOW =            653.68

   INFLOWS - OUTFLOWS =        3691409.81     INFLOWS - OUTFLOWS =        -248091.11
             --------                                   --------

 TOTAL STORAGE CHANGE =        3698656.35         STORAGE CHANGE =        -248099.08
       --------------                             --------------
         LAND SURFACE =        2621639.71           LAND SURFACE =        -253015.87
            SOIL ZONE =        2387302.49              SOIL ZONE =         -16801.91
     UNSATURATED ZONE =        -639129.01       UNSATURATED ZONE =          19478.58
       SATURATED ZONE =        -671156.84         SATURATED ZONE =           2240.12

 OVERALL BUDGET ERROR =          -7246.54           BUDGET ERROR =              7.97


  PERCENT DISCREPANCY =             -0.04    PERCENT DISCREPANCY =              0.00



1
 SUMMARY VOLUMETRIC BUDGET FOR GSFLOW 
 DATE: 04 21 1981              CUMULATIVE TIME STEP:     203
 MODFLOW STRESS PERIOD      2     CURRENT TIME STEP:     203     ITERATIONS:      12

 -----------------------------------------------------------------------------------

   CUMULATIVE VOLUMES               L**3   RATES FOR THIS TIME STEP           L**3/T
   ------------------                      ------------------------

                                     IN                                         IN
                                     --                                         --
        PRECIPITATION =        1.6310D+07          PRECIPITATION =                  
           STREAMFLOW =                               STREAMFLOW =                  
     GW BOUNDARY FLOW =                         GW BOUNDARY FLOW =                  


                                    OUT                                        OUT
                                    ---                                        ---
   EVAPOTRANSPIRATION =        8178347.75     EVAPOTRANSPIRATION =         152248.43
           STREAMFLOW =        5535641.51             STREAMFLOW =          45840.42
     GW BOUNDARY FLOW =         132170.01       GW BOUNDARY FLOW =            652.64

   INFLOWS - OUTFLOWS =        2464098.14     INFLOWS - OUTFLOWS =        -198741.49
             --------                                   --------

 TOTAL STORAGE CHANGE =        2471218.46         STORAGE CHANGE =        -198770.79
       --------------                             --------------
         LAND SURFACE =        1441063.64           LAND SURFACE =        -121364.40
            SOIL ZONE =        2205419.74              SOIL ZONE =         -97315.68
     UNSATURATED ZONE =        -521843.32       UNSATURATED ZONE =          16939.01
       SATURATED ZONE =        -653421.60         SATURATED ZONE =           2970.28

 OVERALL BUDGET ERROR =          -7120.32           BUDGET ERROR =             29.30


  PERCENT DISCREPANCY =             -0.04    PERCENT DISCREPANCY =              0.01



1
 SUMMARY VOLUMETRIC BUDGET FOR GSFLOW 
 DATE: 04 28 1981              CUMULATIVE TIME STEP:     210
 MODFLOW STRESS PERIOD      2     CURRENT TIME STEP:     210     ITERATIONS:      14

 -----------------------------------------------------------------------------------

   CUMULATIVE VOLUMES               L**3   RATES FOR THIS TIME STEP           L**3/T
   ------------------                      ------------------------

                                     IN                                         IN
                                     --                                         --
        PRECIPITATION =        1.6515D+07          PRECIPITATION =                  
           STREAMFLOW =                               STREAMFLOW =                  
     GW BOUNDARY FLOW =                         GW BOUNDARY FLOW =                  


                                    OUT                                        OUT
                                    ---                                        ---
   EVAPOTRANSPIRATION =        9416869.27     EVAPOTRANSPIRATION =         200409.61
           STREAMFLOW =        5748000.89             STREAMFLOW =          24700.25
     GW BOUNDARY FLOW =         136729.51       GW BOUNDARY FLOW =            650.47

   INFLOWS - OUTFLOWS =        1213847.28     INFLOWS - OUTFLOWS =        -225760.33
             --------                                   --------

 TOTAL STORAGE CHANGE =        1220851.11         STORAGE CHANGE =        -225774.06
       --------------                             --------------
         LAND SURFACE =         691620.74           LAND SURFACE =         -83515.74
            SOIL ZONE =        1695359.57              SOIL ZONE =        -138441.10
     UNSATURATED ZONE =        -520611.22       UNSATURATED ZONE =          -4101.85
       SATURATED ZONE =        -645517.98         SATURATED ZONE =            284.63

 OVERALL BUDGET ERROR =          -7003.83           BUDGET ERROR =             13.73


  PERCENT DISCREPANCY =             -0.04    PERCENT DISCREPANCY =              0.01



1
 SUMMARY VOLUMETRIC BUDGET FOR GSFLOW 
 DATE: 05 05 1981              CUMULATIVE TIME STEP:     217
 MODFLOW STRESS PERIOD      2     CURRENT TIME STEP:     217     ITERATIONS:      13

 -----------------------------------------------------------------------------------

   CUMULATIVE VOLUMES               L**3   RATES FOR THIS TIME STEP           L**3/T
   ------------------                      ------------------------

                                     IN                                         IN
                                     --                                         --
        PRECIPITATION =        1.6515D+07          PRECIPITATION =                  
           STREAMFLOW =                               STREAMFLOW =                  
     GW BOUNDARY FLOW =                         GW BOUNDARY FLOW =                  


                                    OUT                                        OUT
                                    ---                                        ---
   EVAPOTRANSPIRATION =        1.0304D+07     EVAPOTRANSPIRATION =          52081.54
           STREAMFLOW =        5853081.92             STREAMFLOW =          10618.69
     GW BOUNDARY FLOW =         141275.87       GW BOUNDARY FLOW =            648.78

   INFLOWS - OUTFLOWS =         217271.20     INFLOWS - OUTFLOWS =         -63349.01
             --------                                   --------

 TOTAL STORAGE CHANGE =         224218.88         STORAGE CHANGE =         -63356.73
       --------------                             --------------
         LAND SURFACE =         347403.61           LAND SURFACE =         -17503.36
            SOIL ZONE =        1153963.23              SOIL ZONE =         -26285.31
     UNSATURATED ZONE =        -618537.73       UNSATURATED ZONE =         -16490.16
       SATURATED ZONE =        -658610.22         SATURATED ZONE =          -3077.91

 OVERALL BUDGET ERROR =          -6947.68           BUDGET ERROR =              7.72


  PERCENT DISCREPANCY =             -0.04    PERCENT DISCREPANCY =              0.01



1
 SUMMARY VOLUMETRIC BUDGET FOR GSFLOW 
 DATE: 05 12 1981              CUMULATIVE TIME STEP:     224
 MODFLOW STRESS PERIOD      2     CURRENT TIME STEP:     224     ITERATIONS:      15

 -----------------------------------------------------------------------------------

   CUMULATIVE VOLUMES               L**3   RATES FOR THIS TIME STEP           L**3/T
   ------------------                      ------------------------

                                     IN                                         IN
                                     --                                         --
        PRECIPITATION =        1.6515D+07          PRECIPITATION =                  
           STREAMFLOW =                               STREAMFLOW =                  
     GW BOUNDARY FLOW =                         GW BOUNDARY FLOW =                  


                                    OUT                                        OUT
                                    ---                                        ---
   EVAPOTRANSPIRATION =        1.0824D+07     EVAPOTRANSPIRATION =          91406.52
           STREAMFLOW =        5922217.84             STREAMFLOW =          10134.61
     GW BOUNDARY FLOW =         145814.31       GW BOUNDARY FLOW =            648.17

   INFLOWS - OUTFLOWS =        -376879.34     INFLOWS - OUTFLOWS =        -102189.31
             --------                                   --------

 TOTAL STORAGE CHANGE =        -369925.21         STORAGE CHANGE =        -102184.76
       --------------                             --------------
         LAND SURFACE =         198720.95           LAND SURFACE =         -25499.92
            SOIL ZONE =         845916.33              SOIL ZONE =         -57498.11
     UNSATURATED ZONE =        -726049.95       UNSATURATED ZONE =         -13703.96
       SATURATED ZONE =        -688512.54         SATURATED ZONE =          -5482.78

 OVERALL BUDGET ERROR =          -6954.13           BUDGET ERROR =             -4.54


  PERCENT DISCREPANCY =             -0.04    PERCENT DISCREPANCY =             -0.00



1
 SUMMARY VOLUMETRIC BUDGET FOR GSFLOW 
 DATE: 05 19 1981              CUMULATIVE TIME STEP:     231
 MODFLOW STRESS PERIOD      2     CURRENT TIME STEP:     231     ITERATIONS:      15

 -----------------------------------------------------------------------------------

   CUMULATIVE VOLUMES               L**3   RATES FOR THIS TIME STEP           L**3/T
   ------------------                      ------------------------

                                     IN                                         IN
                                     --                                         --
        PRECIPITATION =        1.7837D+07          PRECIPITATION =         169047.83
           STREAMFLOW =                               STREAMFLOW =                  
     GW BOUNDARY FLOW =                         GW BOUNDARY FLOW =                  


                                    OUT                                        OUT
                                    ---                                        ---
   EVAPOTRANSPIRATION =        1.1182D+07     EVAPOTRANSPIRATION =          35342.78
           STREAMFLOW =        6046874.33             STREAMFLOW =          25711.96
     GW BOUNDARY FLOW =         150353.34       GW BOUNDARY FLOW =            649.44

   INFLOWS - OUTFLOWS =         458153.19     INFLOWS - OUTFLOWS =         107343.65
             --------                                   --------

 TOTAL STORAGE CHANGE =         465118.30         STORAGE CHANGE =         107347.79
       --------------                             --------------
         LAND SURFACE =         167126.53           LAND SURFACE =           4530.43
            SOIL ZONE =        1825341.30              SOIL ZONE =         110326.15
     UNSATURATED ZONE =        -798839.34       UNSATURATED ZONE =          -1989.47
       SATURATED ZONE =        -728510.20         SATURATED ZONE =          -5519.32

 OVERALL BUDGET ERROR =          -6965.10           BUDGET ERROR =             -4.13


  PERCENT DISCREPANCY =             -0.04    PERCENT DISCREPANCY =             -0.00



1
 SUMMARY VOLUMETRIC BUDGET FOR GSFLOW 
 DATE: 05 26 1981              CUMULATIVE TIME STEP:     238
 MODFLOW STRESS PERIOD      2     CURRENT TIME STEP:     238     ITERATIONS:      12

 -----------------------------------------------------------------------------------

   CUMULATIVE VOLUMES               L**3   RATES FOR THIS TIME STEP           L**3/T
   ------------------                      ------------------------

                                     IN                                         IN
                                     --                                         --
        PRECIPITATION =        1.8252D+07          PRECIPITATION =         284301.98
           STREAMFLOW =                               STREAMFLOW =                  
     GW BOUNDARY FLOW =                         GW BOUNDARY FLOW =                  


                                    OUT                                        OUT
                                    ---                                        ---
   EVAPOTRANSPIRATION =        1.2069D+07     EVAPOTRANSPIRATION =         143477.50
           STREAMFLOW =        6153447.11             STREAMFLOW =          18236.40
     GW BOUNDARY FLOW =         154894.00       GW BOUNDARY FLOW =            648.43

   INFLOWS - OUTFLOWS =        -125204.63     INFLOWS - OUTFLOWS =         121939.65
             --------                                   --------

 TOTAL STORAGE CHANGE =        -118233.53         STORAGE CHANGE =         121940.86
       --------------                             --------------
         LAND SURFACE =          96901.93           LAND SURFACE =          -7055.52
            SOIL ZONE =        1422130.26              SOIL ZONE =         146906.03
     UNSATURATED ZONE =        -860443.49       UNSATURATED ZONE =         -11058.16
       SATURATED ZONE =        -776822.24         SATURATED ZONE =          -6851.49

 OVERALL BUDGET ERROR =          -6971.10           BUDGET ERROR =             -1.21


  PERCENT DISCREPANCY =             -0.04    PERCENT DISCREPANCY =             -0.00



1
 SUMMARY VOLUMETRIC BUDGET FOR GSFLOW 
 DATE: 06 02 1981              CUMULATIVE TIME STEP:     245
 MODFLOW STRESS PERIOD      2     CURRENT TIME STEP:     245     ITERATIONS:      14

 -----------------------------------------------------------------------------------

   CUMULATIVE VOLUMES               L**3   RATES FOR THIS TIME STEP           L**3/T
   ------------------                      ------------------------

                                     IN                                         IN
                                     --                                         --
        PRECIPITATION =        1.8318D+07          PRECIPITATION =          50867.39
           STREAMFLOW =                               STREAMFLOW =                  
     GW BOUNDARY FLOW =                         GW BOUNDARY FLOW =                  


                                    OUT                                        OUT
                                    ---                                        ---
   EVAPOTRANSPIRATION =        1.2872D+07     EVAPOTRANSPIRATION =          65294.06
           STREAMFLOW =        6219789.39             STREAMFLOW =           7490.59
     GW BOUNDARY FLOW =         159428.65       GW BOUNDARY FLOW =            647.38

   INFLOWS - OUTFLOWS =        -933009.31     INFLOWS - OUTFLOWS =         -22564.64
             --------                                   --------

 TOTAL STORAGE CHANGE =        -926001.20         STORAGE CHANGE =         -22552.11
       --------------                             --------------
         LAND SURFACE =          61824.55           LAND SURFACE =          30829.61
            SOIL ZONE =         795925.43              SOIL ZONE =         -31138.54
     UNSATURATED ZONE =        -949596.88       UNSATURATED ZONE =         -13739.12
       SATURATED ZONE =        -834154.30         SATURATED ZONE =          -8504.06

 OVERALL BUDGET ERROR =          -7008.11           BUDGET ERROR =            -12.53


  PERCENT DISCREPANCY =             -0.04    PERCENT DISCREPANCY =             -0.02



1
 SUMMARY VOLUMETRIC BUDGET FOR GSFLOW 
 DATE: 06 09 1981              CUMULATIVE TIME STEP:     252
 MODFLOW STRESS PERIOD      2     CURRENT TIME STEP:     252     ITERATIONS:      13

 -----------------------------------------------------------------------------------

   CUMULATIVE VOLUMES               L**3   RATES FOR THIS TIME STEP           L**3/T
   ------------------                      ------------------------

                                     IN                                         IN
                                     --                                         --
        PRECIPITATION =        1.8318D+07          PRECIPITATION =                  
           STREAMFLOW =                               STREAMFLOW =                  
     GW BOUNDARY FLOW =                         GW BOUNDARY FLOW =                  


                                    OUT                                        OUT
                                    ---                                        ---
   EVAPOTRANSPIRATION =        1.3342D+07     EVAPOTRANSPIRATION =          48771.33
           STREAMFLOW =        6266555.19             STREAMFLOW =           6331.76
     GW BOUNDARY FLOW =         163958.31       GW BOUNDARY FLOW =            646.94

   INFLOWS - OUTFLOWS =       -1454685.87     INFLOWS - OUTFLOWS =         -55750.03
             --------                                   --------

 TOTAL STORAGE CHANGE =       -1447638.63         STORAGE CHANGE =         -55739.72
       --------------                             --------------
         LAND SURFACE =           8254.44           LAND SURFACE =          -1595.45
            SOIL ZONE =         483576.58              SOIL ZONE =         -31947.28
     UNSATURATED ZONE =       -1043468.88       UNSATURATED ZONE =         -13203.50
       SATURATED ZONE =        -896000.77         SATURATED ZONE =          -8993.50

 OVERALL BUDGET ERROR =          -7047.25           BUDGET ERROR =            -10.30


  PERCENT DISCREPANCY =             -0.04    PERCENT DISCREPANCY =             -0.02



1
 SUMMARY VOLUMETRIC BUDGET FOR GSFLOW 
 DATE: 06 16 1981              CUMULATIVE TIME STEP:     259
 MODFLOW STRESS PERIOD      2     CURRENT TIME STEP:     259     ITERATIONS:      12

 -----------------------------------------------------------------------------------

   CUMULATIVE VOLUMES               L**3   RATES FOR THIS TIME STEP           L**3/T
   ------------------                      ------------------------

                                     IN                                         IN
                                     --                                         --
        PRECIPITATION =        1.8318D+07          PRECIPITATION =                  
           STREAMFLOW =                               STREAMFLOW =                  
     GW BOUNDARY FLOW =                         GW BOUNDARY FLOW =                  


                                    OUT                                        OUT
                                    ---                                        ---
   EVAPOTRANSPIRATION =        1.3527D+07     EVAPOTRANSPIRATION =          44143.55
           STREAMFLOW =        6309855.31             STREAMFLOW =           6122.55
     GW BOUNDARY FLOW =         168486.00       GW BOUNDARY FLOW =            646.73

   INFLOWS - OUTFLOWS =       -1687588.34     INFLOWS - OUTFLOWS =         -50912.84
             --------                                   --------

 TOTAL STORAGE CHANGE =       -1680505.03         STORAGE CHANGE =         -50906.95
       --------------                             --------------
         LAND SURFACE =           3426.51           LAND SURFACE =           -943.67
            SOIL ZONE =         409650.72              SOIL ZONE =         -28077.63
     UNSATURATED ZONE =       -1133681.05       UNSATURATED ZONE =         -12604.86
       SATURATED ZONE =        -959901.21         SATURATED ZONE =          -9280.79

 OVERALL BUDGET ERROR =          -7083.30           BUDGET ERROR =             -5.89


  PERCENT DISCREPANCY =             -0.04    PERCENT DISCREPANCY =             -0.01



1
 SUMMARY VOLUMETRIC BUDGET FOR GSFLOW 
 DATE: 06 23 1981              CUMULATIVE TIME STEP:     266
 MODFLOW STRESS PERIOD      2     CURRENT TIME STEP:     266     ITERATIONS:      14

 -----------------------------------------------------------------------------------

   CUMULATIVE VOLUMES               L**3   RATES FOR THIS TIME STEP           L**3/T
   ------------------                      ------------------------

                                     IN                                         IN
                                     --                                         --
        PRECIPITATION =        1.8318D+07          PRECIPITATION =                  
           STREAMFLOW =                               STREAMFLOW =                  
     GW BOUNDARY FLOW =                         GW BOUNDARY FLOW =                  


                                    OUT                                        OUT
                                    ---                                        ---
   EVAPOTRANSPIRATION =        1.3807D+07     EVAPOTRANSPIRATION =          33109.54
           STREAMFLOW =        6351880.51             STREAMFLOW =           5941.90
     GW BOUNDARY FLOW =         173012.46       GW BOUNDARY FLOW =            646.56

   INFLOWS - OUTFLOWS =       -2013416.85     INFLOWS - OUTFLOWS =         -39698.01
             --------                                   --------

 TOTAL STORAGE CHANGE =       -2006315.85         STORAGE CHANGE =         -39700.36
       --------------                             --------------
         LAND SURFACE =                             LAND SURFACE =                  
            SOIL ZONE =         239332.35              SOIL ZONE =         -18090.48
     UNSATURATED ZONE =       -1218977.08       UNSATURATED ZONE =         -11758.71
       SATURATED ZONE =       -1026671.13         SATURATED ZONE =          -9851.16

 OVERALL BUDGET ERROR =          -7100.99           BUDGET ERROR =              2.35


  PERCENT DISCREPANCY =             -0.03    PERCENT DISCREPANCY =              0.01



1
 SUMMARY VOLUMETRIC BUDGET FOR GSFLOW 
 DATE: 06 30 1981              CUMULATIVE TIME STEP:     273
 MODFLOW STRESS PERIOD      2     CURRENT TIME STEP:     273     ITERATIONS:       9

 -----------------------------------------------------------------------------------

   CUMULATIVE VOLUMES               L**3   RATES FOR THIS TIME STEP           L**3/T
   ------------------                      ------------------------

                                     IN                                         IN
[...]
     GW BOUNDARY FLOW =        3735683.95       GW BOUNDARY FLOW =            650.71

   INFLOWS - OUTFLOWS =       -7905490.35     INFLOWS - OUTFLOWS =         -48900.03
             --------                                   --------

 TOTAL STORAGE CHANGE =       -7798360.15         STORAGE CHANGE =         -48913.17
       --------------                             --------------
         LAND SURFACE =          84521.90           LAND SURFACE =          -4963.73
            SOIL ZONE =         222748.38              SOIL ZONE =         -22637.82
     UNSATURATED ZONE =        5290697.86       UNSATURATED ZONE =         -27603.35
       SATURATED ZONE =       -1.3396D+07         SATURATED ZONE =           6291.75

 OVERALL BUDGET ERROR =        -107130.20           BUDGET ERROR =             13.13


  PERCENT DISCREPANCY =             -0.02    PERCENT DISCREPANCY =              0.03



1
 SUMMARY VOLUMETRIC BUDGET FOR GSFLOW 
 DATE: 07 30 1996              CUMULATIVE TIME STEP:    5782
 MODFLOW STRESS PERIOD      2     CURRENT TIME STEP:    5782     ITERATIONS:      13

 -----------------------------------------------------------------------------------

   CUMULATIVE VOLUMES               L**3   RATES FOR THIS TIME STEP           L**3/T
   ------------------                      ------------------------

                                     IN                                         IN
                                     --                                         --
        PRECIPITATION =        4.6511D+08          PRECIPITATION =                  
           STREAMFLOW =                               STREAMFLOW =                  
     GW BOUNDARY FLOW =                         GW BOUNDARY FLOW =                  


                                    OUT                                        OUT
                                    ---                                        ---
   EVAPOTRANSPIRATION =        2.8862D+08     EVAPOTRANSPIRATION =          25444.93
           STREAMFLOW =        1.8091D+08             STREAMFLOW =           6744.75
     GW BOUNDARY FLOW =        3740237.31       GW BOUNDARY FLOW =            650.29

   INFLOWS - OUTFLOWS =       -8162705.14     INFLOWS - OUTFLOWS =         -32839.97
             --------                                   --------

 TOTAL STORAGE CHANGE =       -8055676.94         STORAGE CHANGE =         -32867.23
       --------------                             --------------
         LAND SURFACE =          55427.09           LAND SURFACE =          -3488.58
            SOIL ZONE =         142338.18              SOIL ZONE =          -8384.74
     UNSATURATED ZONE =        5103154.08       UNSATURATED ZONE =         -26300.53
       SATURATED ZONE =       -1.3357D+07         SATURATED ZONE =           5306.61

 OVERALL BUDGET ERROR =        -107028.21           BUDGET ERROR =             27.26


  PERCENT DISCREPANCY =             -0.02    PERCENT DISCREPANCY =              0.08



1
 SUMMARY VOLUMETRIC BUDGET FOR GSFLOW 
 DATE: 08 06 1996              CUMULATIVE TIME STEP:    5789
 MODFLOW STRESS PERIOD      2     CURRENT TIME STEP:    5789     ITERATIONS:      13

 -----------------------------------------------------------------------------------

   CUMULATIVE VOLUMES               L**3   RATES FOR THIS TIME STEP           L**3/T
   ------------------                      ------------------------

                                     IN                                         IN
                                     --                                         --
        PRECIPITATION =        4.6511D+08          PRECIPITATION =                  
           STREAMFLOW =                               STREAMFLOW =                  
     GW BOUNDARY FLOW =                         GW BOUNDARY FLOW =                  


                                    OUT                                        OUT
                                    ---                                        ---
   EVAPOTRANSPIRATION =        2.8876D+08     EVAPOTRANSPIRATION =          18635.76
           STREAMFLOW =        1.8096D+08             STREAMFLOW =           6544.42
     GW BOUNDARY FLOW =        3744787.55       GW BOUNDARY FLOW =            649.92

   INFLOWS - OUTFLOWS =       -8349872.80     INFLOWS - OUTFLOWS =         -25830.10
             --------                                   --------

 TOTAL STORAGE CHANGE =       -8242973.08         STORAGE CHANGE =         -25850.84
       --------------                             --------------
         LAND SURFACE =          37080.11           LAND SURFACE =          -2254.04
            SOIL ZONE =         119090.67              SOIL ZONE =          -2904.21
     UNSATURATED ZONE =        4921296.46       UNSATURATED ZONE =         -25494.34
       SATURATED ZONE =       -1.3320D+07         SATURATED ZONE =           4801.75

 OVERALL BUDGET ERROR =        -106899.71           BUDGET ERROR =             20.74


  PERCENT DISCREPANCY =             -0.02    PERCENT DISCREPANCY =              0.08



1
 SUMMARY VOLUMETRIC BUDGET FOR GSFLOW 
 DATE: 08 13 1996              CUMULATIVE TIME STEP:    5796
 MODFLOW STRESS PERIOD      2     CURRENT TIME STEP:    5796     ITERATIONS:      14

 -----------------------------------------------------------------------------------

   CUMULATIVE VOLUMES               L**3   RATES FOR THIS TIME STEP           L**3/T
   ------------------                      ------------------------

                                     IN                                         IN
                                     --                                         --
        PRECIPITATION =        4.6531D+08          PRECIPITATION =          54456.73
           STREAMFLOW =                               STREAMFLOW =                  
     GW BOUNDARY FLOW =                         GW BOUNDARY FLOW =                  


                                    OUT                                        OUT
                                    ---                                        ---
   EVAPOTRANSPIRATION =        2.8893D+08     EVAPOTRANSPIRATION =          33310.64
           STREAMFLOW =        1.8101D+08             STREAMFLOW =           7744.75
     GW BOUNDARY FLOW =        3749336.88       GW BOUNDARY FLOW =            649.95

   INFLOWS - OUTFLOWS =       -8373229.24     INFLOWS - OUTFLOWS =          12751.39
             --------                                   --------

 TOTAL STORAGE CHANGE =       -8266414.98         STORAGE CHANGE =          12741.87
       --------------                             --------------
         LAND SURFACE =          53177.14           LAND SURFACE =          -2312.81
            SOIL ZONE =         222867.33              SOIL ZONE =          35336.75
     UNSATURATED ZONE =        4748239.51       UNSATURATED ZONE =         -24089.27
       SATURATED ZONE =       -1.3291D+07         SATURATED ZONE =           3807.20

 OVERALL BUDGET ERROR =        -106814.26           BUDGET ERROR =              9.52


  PERCENT DISCREPANCY =             -0.02    PERCENT DISCREPANCY =              0.02



1
 SUMMARY VOLUMETRIC BUDGET FOR GSFLOW 
 DATE: 08 20 1996              CUMULATIVE TIME STEP:    5803
 MODFLOW STRESS PERIOD      2     CURRENT TIME STEP:    5803     ITERATIONS:      13

 -----------------------------------------------------------------------------------

   CUMULATIVE VOLUMES               L**3   RATES FOR THIS TIME STEP           L**3/T
   ------------------                      ------------------------

                                     IN                                         IN
                                     --                                         --
        PRECIPITATION =        4.6531D+08          PRECIPITATION =                  
           STREAMFLOW =                               STREAMFLOW =                  
     GW BOUNDARY FLOW =                         GW BOUNDARY FLOW =                  


                                    OUT                                        OUT
                                    ---                                        ---
   EVAPOTRANSPIRATION =        2.8913D+08     EVAPOTRANSPIRATION =          16725.46
           STREAMFLOW =        1.8105D+08             STREAMFLOW =           6351.81
     GW BOUNDARY FLOW =        3753885.14       GW BOUNDARY FLOW =            649.60

   INFLOWS - OUTFLOWS =       -8620847.28     INFLOWS - OUTFLOWS =         -23726.87
             --------                                   --------

 TOTAL STORAGE CHANGE =       -8514158.75         STORAGE CHANGE =         -23750.00
       --------------                             --------------
         LAND SURFACE =           6933.74           LAND SURFACE =          -1297.55
            SOIL ZONE =         163298.15              SOIL ZONE =          -2276.62
     UNSATURATED ZONE =        4583836.22       UNSATURATED ZONE =         -23055.25
       SATURATED ZONE =       -1.3268D+07         SATURATED ZONE =           2879.41

 OVERALL BUDGET ERROR =        -106688.53           BUDGET ERROR =             23.13


  PERCENT DISCREPANCY =             -0.02    PERCENT DISCREPANCY =              0.10



1
 SUMMARY VOLUMETRIC BUDGET FOR GSFLOW 
 DATE: 08 27 1996              CUMULATIVE TIME STEP:    5810
 MODFLOW STRESS PERIOD      2     CURRENT TIME STEP:    5810     ITERATIONS:      13

 -----------------------------------------------------------------------------------

   CUMULATIVE VOLUMES               L**3   RATES FOR THIS TIME STEP           L**3/T
   ------------------                      ------------------------

                                     IN                                         IN
                                     --                                         --
        PRECIPITATION =        4.6531D+08          PRECIPITATION =                  
           STREAMFLOW =                               STREAMFLOW =                  
     GW BOUNDARY FLOW =                         GW BOUNDARY FLOW =                  


                                    OUT                                        OUT
                                    ---                                        ---
   EVAPOTRANSPIRATION =        2.8926D+08     EVAPOTRANSPIRATION =          15210.52
           STREAMFLOW =        1.8110D+08             STREAMFLOW =           6193.11
     GW BOUNDARY FLOW =        3758431.03       GW BOUNDARY FLOW =            649.27

   INFLOWS - OUTFLOWS =       -8805509.93     INFLOWS - OUTFLOWS =         -22052.90
             --------                                   --------

 TOTAL STORAGE CHANGE =       -8698917.89         STORAGE CHANGE =         -22072.13
       --------------                             --------------
         LAND SURFACE =           1244.67           LAND SURFACE =           -272.68
            SOIL ZONE =         124419.06              SOIL ZONE =          -1867.82
     UNSATURATED ZONE =        4427542.38       UNSATURATED ZONE =         -21934.27
       SATURATED ZONE =       -1.3252D+07         SATURATED ZONE =           2002.64

 OVERALL BUDGET ERROR =        -106592.04           BUDGET ERROR =             19.23


  PERCENT DISCREPANCY =             -0.02    PERCENT DISCREPANCY =              0.09



1
 SUMMARY VOLUMETRIC BUDGET FOR GSFLOW 
 DATE: 09 03 1996              CUMULATIVE TIME STEP:    5817
 MODFLOW STRESS PERIOD      2     CURRENT TIME STEP:    5817     ITERATIONS:      12

 -----------------------------------------------------------------------------------

   CUMULATIVE VOLUMES               L**3   RATES FOR THIS TIME STEP           L**3/T
   ------------------                      ------------------------

                                     IN                                         IN
                                     --                                         --
        PRECIPITATION =        4.6531D+08          PRECIPITATION =                  
           STREAMFLOW =                               STREAMFLOW =                  
     GW BOUNDARY FLOW =                         GW BOUNDARY FLOW =                  


                                    OUT                                        OUT
                                    ---                                        ---
   EVAPOTRANSPIRATION =        2.8937D+08     EVAPOTRANSPIRATION =          12386.88
           STREAMFLOW =        1.8114D+08             STREAMFLOW =           6093.23
     GW BOUNDARY FLOW =        3762974.41       GW BOUNDARY FLOW =            648.89

   INFLOWS - OUTFLOWS =       -8954945.81     INFLOWS - OUTFLOWS =         -19129.00
             --------                                   --------

 TOTAL STORAGE CHANGE =       -8848531.24         STORAGE CHANGE =         -19147.83
       --------------                             --------------
         LAND SURFACE =            584.39           LAND SURFACE =            -75.06
            SOIL ZONE =         114122.91              SOIL ZONE =            633.81
     UNSATURATED ZONE =        4277298.68       UNSATURATED ZONE =         -21213.48
       SATURATED ZONE =       -1.3241D+07         SATURATED ZONE =           1506.90

 OVERALL BUDGET ERROR =        -106414.57           BUDGET ERROR =             18.83


  PERCENT DISCREPANCY =             -0.02    PERCENT DISCREPANCY =              0.10



1
 SUMMARY VOLUMETRIC BUDGET FOR GSFLOW 
 DATE: 09 10 1996              CUMULATIVE TIME STEP:    5824
 MODFLOW STRESS PERIOD      2     CURRENT TIME STEP:    5824     ITERATIONS:      12

 -----------------------------------------------------------------------------------

   CUMULATIVE VOLUMES               L**3   RATES FOR THIS TIME STEP           L**3/T
   ------------------                      ------------------------

                                     IN                                         IN
                                     --                                         --
        PRECIPITATION =        4.6531D+08          PRECIPITATION =                  
           STREAMFLOW =                               STREAMFLOW =                  
     GW BOUNDARY FLOW =                         GW BOUNDARY FLOW =                  


                                    OUT                                        OUT
                                    ---                                        ---
   EVAPOTRANSPIRATION =        2.8945D+08     EVAPOTRANSPIRATION =          13303.59
           STREAMFLOW =        1.8118D+08             STREAMFLOW =           6002.31
     GW BOUNDARY FLOW =        3767515.19       GW BOUNDARY FLOW =            648.52

   INFLOWS - OUTFLOWS =       -9084736.70     INFLOWS - OUTFLOWS =         -19954.42
             --------                                   --------

 TOTAL STORAGE CHANGE =       -8978490.16         STORAGE CHANGE =         -19985.58
       --------------                             --------------
         LAND SURFACE =            141.93           LAND SURFACE =            -69.29
            SOIL ZONE =         121729.47              SOIL ZONE =           -410.99
     UNSATURATED ZONE =        4129720.31       UNSATURATED ZONE =         -20880.48
       SATURATED ZONE =       -1.3230D+07         SATURATED ZONE =           1375.19

 OVERALL BUDGET ERROR =        -106246.54           BUDGET ERROR =             31.16


  PERCENT DISCREPANCY =             -0.02    PERCENT DISCREPANCY =              0.16



1
 SUMMARY VOLUMETRIC BUDGET FOR GSFLOW 
 DATE: 09 17 1996              CUMULATIVE TIME STEP:    5831
 MODFLOW STRESS PERIOD      2     CURRENT TIME STEP:    5831     ITERATIONS:      11

 -----------------------------------------------------------------------------------

   CUMULATIVE VOLUMES               L**3   RATES FOR THIS TIME STEP           L**3/T
   ------------------                      ------------------------

                                     IN                                         IN
                                     --                                         --
        PRECIPITATION =        4.6637D+08          PRECIPITATION =                  
           STREAMFLOW =                               STREAMFLOW =                  
     GW BOUNDARY FLOW =                         GW BOUNDARY FLOW =                  


                                    OUT                                        OUT
                                    ---                                        ---
   EVAPOTRANSPIRATION =        2.8963D+08     EVAPOTRANSPIRATION =          63860.91
           STREAMFLOW =        1.8125D+08             STREAMFLOW =          10052.70
     GW BOUNDARY FLOW =        3772055.33       GW BOUNDARY FLOW =            648.93

   INFLOWS - OUTFLOWS =       -8286355.96     INFLOWS - OUTFLOWS =         -74562.55
             --------                                   --------

 TOTAL STORAGE CHANGE =       -8180304.45         STORAGE CHANGE =         -74595.10
       --------------                             --------------
         LAND SURFACE =           2829.02           LAND SURFACE =         -35615.32
            SOIL ZONE =        1050702.52              SOIL ZONE =         -19676.41
     UNSATURATED ZONE =        3987691.60       UNSATURATED ZONE =         -19884.93
       SATURATED ZONE =       -1.3222D+07         SATURATED ZONE =            581.55

 OVERALL BUDGET ERROR =        -106051.51           BUDGET ERROR =             32.56


  PERCENT DISCREPANCY =             -0.02    PERCENT DISCREPANCY =              0.04



1
 SUMMARY VOLUMETRIC BUDGET FOR GSFLOW 
 DATE: 09 24 1996              CUMULATIVE TIME STEP:    5838
 MODFLOW STRESS PERIOD      2     CURRENT TIME STEP:    5838     ITERATIONS:      12

 -----------------------------------------------------------------------------------

   CUMULATIVE VOLUMES               L**3   RATES FOR THIS TIME STEP           L**3/T
   ------------------                      ------------------------

                                     IN                                         IN
                                     --                                         --
        PRECIPITATION =        4.6637D+08          PRECIPITATION =                  
           STREAMFLOW =                               STREAMFLOW =                  
     GW BOUNDARY FLOW =                         GW BOUNDARY FLOW =                  


                                    OUT                                        OUT
                                    ---                                        ---
   EVAPOTRANSPIRATION =        2.9012D+08     EVAPOTRANSPIRATION =          55314.96
           STREAMFLOW =        1.8130D+08             STREAMFLOW =           6398.33
     GW BOUNDARY FLOW =        3776593.87       GW BOUNDARY FLOW =            648.02

   INFLOWS - OUTFLOWS =       -8825882.78     INFLOWS - OUTFLOWS =         -62361.32
             --------                                   --------

 TOTAL STORAGE CHANGE =       -8720055.38         STORAGE CHANGE =         -62379.15
       --------------                             --------------
         LAND SURFACE =                             LAND SURFACE =                  
            SOIL ZONE =         648259.68              SOIL ZONE =         -43263.91
     UNSATURATED ZONE =        3852005.24       UNSATURATED ZONE =         -19199.19
       SATURATED ZONE =       -1.3220D+07         SATURATED ZONE =             83.96

 OVERALL BUDGET ERROR =        -105827.40           BUDGET ERROR =             17.83


  PERCENT DISCREPANCY =             -0.02    PERCENT DISCREPANCY =              0.03



 Number of time steps:   5844;  Number of non-convergence:   0
 MF iterations:         63717;  SZ iterations:           63680
 Average MF iterations: 10.90;  Average SZ iterations:   10.90
 Maximum MF iterations:    31;  Maximum SZ iterations:      25

mxsziter reached: 13

