1
 SUMMARY VOLUMETRIC BUDGET FOR GSFLOW 
 DATE: 10 07 1980              CUMULATIVE TIME STEP:       7
 MODFLOW STRESS PERIOD      2     CURRENT TIME STEP:       7     ITERATIONS:       6

 -----------------------------------------------------------------------------------

   CUMULATIVE VOLUMES               L**3   RATES FOR THIS TIME STEP           L**3/T
   ------------------                      ------------------------

                                     IN                                         IN
                                     --                                         --
        PRECIPITATION =                            PRECIPITATION =                  
           STREAMFLOW =                               STREAMFLOW =                  
     GW BOUNDARY FLOW =                         GW BOUNDARY FLOW =                  


                                    OUT                                        OUT
                                    ---                                        ---
   EVAPOTRANSPIRATION =          63502.38     EVAPOTRANSPIRATION =           9679.51
           STREAMFLOW =          42957.63             STREAMFLOW =           6065.77
     GW BOUNDARY FLOW =           4541.44       GW BOUNDARY FLOW =            648.70

   INFLOWS - OUTFLOWS =        -111001.44     INFLOWS - OUTFLOWS =         -16393.99
             --------                                   --------

 TOTAL STORAGE CHANGE =        -110545.66         STORAGE CHANGE =         -16325.67
       --------------                             --------------
         LAND SURFACE =                             LAND SURFACE =                  
            SOIL ZONE =          47014.67              SOIL ZONE =           6016.91
     UNSATURATED ZONE =        -144777.37       UNSATURATED ZONE =         -20360.11
       SATURATED ZONE =         -12782.96         SATURATED ZONE =          -1982.46

 OVERALL BUDGET ERROR =           -455.78           BUDGET ERROR =            -68.32


  PERCENT DISCREPANCY =             -0.41    PERCENT DISCREPANCY =             -0.42



1
 SUMMARY VOLUMETRIC BUDGET FOR GSFLOW 
 DATE: 10 14 1980              CUMULATIVE TIME STEP:      14
 MODFLOW STRESS PERIOD      2     CURRENT TIME STEP:      14     ITERATIONS:       6

 -----------------------------------------------------------------------------------

   CUMULATIVE VOLUMES               L**3   RATES FOR THIS TIME STEP           L**3/T
   ------------------                      ------------------------

                                     IN                                         IN
                                     --                                         --
        PRECIPITATION =         650780.39          PRECIPITATION =         164754.68
           STREAMFLOW =                               STREAMFLOW =                  
     GW BOUNDARY FLOW =                         GW BOUNDARY FLOW =                  


                                    OUT                                        OUT
                                    ---                                        ---
   EVAPOTRANSPIRATION =         147659.88     EVAPOTRANSPIRATION =           7975.76
           STREAMFLOW =          92677.73             STREAMFLOW =           7494.70
     GW BOUNDARY FLOW =           9082.78       GW BOUNDARY FLOW =            648.89

   INFLOWS - OUTFLOWS =         401360.01     INFLOWS - OUTFLOWS =         148635.32
             --------                                   --------

 TOTAL STORAGE CHANGE =         402330.52         STORAGE CHANGE =         148709.32
       --------------                             --------------
         LAND SURFACE =         277680.20           LAND SURFACE =         136619.69
            SOIL ZONE =         436777.17              SOIL ZONE =          34107.48
     UNSATURATED ZONE =        -284452.37       UNSATURATED ZONE =         -19623.49
       SATURATED ZONE =         -27674.48         SATURATED ZONE =          -2394.36

 OVERALL BUDGET ERROR =           -970.51           BUDGET ERROR =            -74.00


  PERCENT DISCREPANCY =             -0.15    PERCENT DISCREPANCY =             -0.04



1
 SUMMARY VOLUMETRIC BUDGET FOR GSFLOW 
 DATE: 10 21 1980              CUMULATIVE TIME STEP:      21
 MODFLOW STRESS PERIOD      2     CURRENT TIME STEP:      21     ITERATIONS:       6

 -----------------------------------------------------------------------------------

   CUMULATIVE VOLUMES               L**3   RATES FOR THIS TIME STEP           L**3/T
   ------------------                      ------------------------

                                     IN                                         IN
                                     --                                         --
        PRECIPITATION =         733156.23          PRECIPITATION =                  
           STREAMFLOW =                               STREAMFLOW =                  
     GW BOUNDARY FLOW =                         GW BOUNDARY FLOW =                  


                                    OUT                                        OUT
                                    ---                                        ---
   EVAPOTRANSPIRATION =         376397.64     EVAPOTRANSPIRATION =          37106.86
           STREAMFLOW =         144890.95             STREAMFLOW =           7105.98
     GW BOUNDARY FLOW =          13624.56       GW BOUNDARY FLOW =            648.77

   INFLOWS - OUTFLOWS =         198243.09     INFLOWS - OUTFLOWS =         -44861.61
             --------                                   --------

 TOTAL STORAGE CHANGE =         199724.29         STORAGE CHANGE =         -44780.96
       --------------                             --------------
         LAND SURFACE =           2252.39           LAND SURFACE =          -3155.26
            SOIL ZONE =         662439.07              SOIL ZONE =         -19833.87
     UNSATURATED ZONE =        -418622.14       UNSATURATED ZONE =         -18801.02
       SATURATED ZONE =         -46345.02         SATURATED ZONE =          -2990.81

 OVERALL BUDGET ERROR =          -1481.21           BUDGET ERROR =            -80.65


  PERCENT DISCREPANCY =             -0.20    PERCENT DISCREPANCY =             -0.18



1
 SUMMARY VOLUMETRIC BUDGET FOR GSFLOW 
 DATE: 10 28 1980              CUMULATIVE TIME STEP:      28
 MODFLOW STRESS PERIOD      2     CURRENT TIME STEP:      28     ITERATIONS:       6

 -----------------------------------------------------------------------------------

   CUMULATIVE VOLUMES               L**3   RATES FOR THIS TIME STEP           L**3/T
   ------------------                      ------------------------

                                     IN                                         IN
                                     --                                         --
        PRECIPITATION =        1070899.96          PRECIPITATION =                  
           STREAMFLOW =                               STREAMFLOW =                  
     GW BOUNDARY FLOW =                         GW BOUNDARY FLOW =                  


                                    OUT                                        OUT
                                    ---                                        ---
   EVAPOTRANSPIRATION =         557225.32     EVAPOTRANSPIRATION =          23594.69
           STREAMFLOW =         199834.76             STREAMFLOW =           7989.32
     GW BOUNDARY FLOW =          18165.91       GW BOUNDARY FLOW =            648.81

   INFLOWS - OUTFLOWS =         295673.97     INFLOWS - OUTFLOWS =         -32232.82
             --------                                   --------

 TOTAL STORAGE CHANGE =         297726.81         STORAGE CHANGE =         -32145.87
       --------------                             --------------
         LAND SURFACE =          24622.16           LAND SURFACE =         -30947.62
            SOIL ZONE =         889246.88              SOIL ZONE =          20269.32
     UNSATURATED ZONE =        -547225.26       UNSATURATED ZONE =         -17994.12
       SATURATED ZONE =         -68916.98         SATURATED ZONE =          -3473.45

 OVERALL BUDGET ERROR =          -2052.84           BUDGET ERROR =            -86.94


  PERCENT DISCREPANCY =             -0.19    PERCENT DISCREPANCY =             -0.27



1
 SUMMARY VOLUMETRIC BUDGET FOR GSFLOW 
 DATE: 11 04 1980              CUMULATIVE TIME STEP:      35
 MODFLOW STRESS PERIOD      2     CURRENT TIME STEP:      35     ITERATIONS:       8

 -----------------------------------------------------------------------------------

   CUMULATIVE VOLUMES               L**3   RATES FOR THIS TIME STEP           L**3/T
   ------------------                      ------------------------

                                     IN                                         IN
                                     --                                         --
        PRECIPITATION =        1070899.96          PRECIPITATION =                  
           STREAMFLOW =                               STREAMFLOW =                  
     GW BOUNDARY FLOW =                         GW BOUNDARY FLOW =                  


                                    OUT                                        OUT
                                    ---                                        ---
   EVAPOTRANSPIRATION =         854959.49     EVAPOTRANSPIRATION =          38437.82
           STREAMFLOW =         252302.63             STREAMFLOW =           7018.30
     GW BOUNDARY FLOW =          22706.92       GW BOUNDARY FLOW =            648.64

   INFLOWS - OUTFLOWS =         -59069.08     INFLOWS - OUTFLOWS =         -46104.76
             --------                                   --------

 TOTAL STORAGE CHANGE =         -56526.12         STORAGE CHANGE =         -46042.74
       --------------                             --------------
         LAND SURFACE =                             LAND SURFACE =                  
            SOIL ZONE =         710230.81              SOIL ZONE =         -24516.75
     UNSATURATED ZONE =        -670653.07       UNSATURATED ZONE =         -17361.09
       SATURATED ZONE =         -96103.86         SATURATED ZONE =          -4164.90

 OVERALL BUDGET ERROR =          -2542.96           BUDGET ERROR =            -62.03


  PERCENT DISCREPANCY =             -0.23    PERCENT DISCREPANCY =             -0.13



1
 SUMMARY VOLUMETRIC BUDGET FOR GSFLOW 
 DATE: 11 11 1980              CUMULATIVE TIME STEP:      42
 MODFLOW STRESS PERIOD      2     CURRENT TIME STEP:      42     ITERATIONS:       7

 -----------------------------------------------------------------------------------

   CUMULATIVE VOLUMES               L**3   RATES FOR THIS TIME STEP           L**3/T
   ------------------                      ------------------------

                                     IN                                         IN
                                     --                                         --
        PRECIPITATION =        1573759.34          PRECIPITATION =         255182.10
           STREAMFLOW =                               STREAMFLOW =                  
     GW BOUNDARY FLOW =                         GW BOUNDARY FLOW =                  


                                    OUT                                        OUT
                                    ---                                        ---
   EVAPOTRANSPIRATION =        1066449.50     EVAPOTRANSPIRATION =          14941.35
           STREAMFLOW =         308270.94             STREAMFLOW =          10769.44
     GW BOUNDARY FLOW =          27247.64       GW BOUNDARY FLOW =            648.84

   INFLOWS - OUTFLOWS =         171791.25     INFLOWS - OUTFLOWS =         228822.47
             --------                                   --------

 TOTAL STORAGE CHANGE =         174880.01         STORAGE CHANGE =         228887.43
       --------------                             --------------
         LAND SURFACE =          78611.70           LAND SURFACE =          76658.21
            SOIL ZONE =        1011575.15              SOIL ZONE =         172853.07
     UNSATURATED ZONE =        -789255.03       UNSATURATED ZONE =         -16535.00
       SATURATED ZONE =        -126051.81         SATURATED ZONE =          -4088.85

 OVERALL BUDGET ERROR =          -3088.75           BUDGET ERROR =            -64.96


  PERCENT DISCREPANCY =             -0.20    PERCENT DISCREPANCY =             -0.03



1
 SUMMARY VOLUMETRIC BUDGET FOR GSFLOW 
 DATE: 11 18 1980              CUMULATIVE TIME STEP:      49
 MODFLOW STRESS PERIOD      2     CURRENT TIME STEP:      49     ITERATIONS:       6

 -----------------------------------------------------------------------------------

   CUMULATIVE VOLUMES               L**3   RATES FOR THIS TIME STEP           L**3/T
   ------------------                      ------------------------

                                     IN                                         IN
                                     --                                         --
        PRECIPITATION =        1573759.34          PRECIPITATION =                  
           STREAMFLOW =                               STREAMFLOW =                  
     GW BOUNDARY FLOW =                         GW BOUNDARY FLOW =                  


                                    OUT                                        OUT
                                    ---                                        ---
   EVAPOTRANSPIRATION =        1154910.86     EVAPOTRANSPIRATION =          16640.31
           STREAMFLOW =         371175.93             STREAMFLOW =           9356.96
     GW BOUNDARY FLOW =          31789.52       GW BOUNDARY FLOW =            648.86

   INFLOWS - OUTFLOWS =          15883.02     INFLOWS - OUTFLOWS =         -26646.13
             --------                                   --------

 TOTAL STORAGE CHANGE =          19605.24         STORAGE CHANGE =         -26546.01
       --------------                             --------------
         LAND SURFACE =           8650.47           LAND SURFACE =          -6201.94
            SOIL ZONE =        1072807.04              SOIL ZONE =            474.73
     UNSATURATED ZONE =        -903177.95       UNSATURATED ZONE =         -16031.62
       SATURATED ZONE =        -158674.32         SATURATED ZONE =          -4787.17

 OVERALL BUDGET ERROR =          -3722.22           BUDGET ERROR =           -100.13


  PERCENT DISCREPANCY =             -0.24    PERCENT DISCREPANCY =             -0.38



1
 SUMMARY VOLUMETRIC BUDGET FOR GSFLOW 
 DATE: 11 25 1980              CUMULATIVE TIME STEP:      56
 MODFLOW STRESS PERIOD      2     CURRENT TIME STEP:      56     ITERATIONS:       8

 -----------------------------------------------------------------------------------

   CUMULATIVE VOLUMES               L**3   RATES FOR THIS TIME STEP           L**3/T
   ------------------                      ------------------------

                                     IN                                         IN
                                     --                                         --
        PRECIPITATION =        1648813.76          PRECIPITATION =                  
           STREAMFLOW =                               STREAMFLOW =                  
     GW BOUNDARY FLOW =                         GW BOUNDARY FLOW =                  


                                    OUT                                        OUT
                                    ---                                        ---
   EVAPOTRANSPIRATION =        1230203.47     EVAPOTRANSPIRATION =           8792.89
           STREAMFLOW =         438358.62             STREAMFLOW =           9949.36
     GW BOUNDARY FLOW =          36331.80       GW BOUNDARY FLOW =            648.93

   INFLOWS - OUTFLOWS =         -56080.13     INFLOWS - OUTFLOWS =         -19391.18
             --------                                   --------

 TOTAL STORAGE CHANGE =         -51805.23         STORAGE CHANGE =         -19327.07
       --------------                             --------------
         LAND SURFACE =          55166.56           LAND SURFACE =          -8744.72
            SOIL ZONE =        1100543.57              SOIL ZONE =          10159.59
     UNSATURATED ZONE =       -1012811.21       UNSATURATED ZONE =         -15403.94
       SATURATED ZONE =        -194704.15         SATURATED ZONE =          -5338.00

 OVERALL BUDGET ERROR =          -4274.91           BUDGET ERROR =            -64.11


  PERCENT DISCREPANCY =             -0.25    PERCENT DISCREPANCY =             -0.33



1
 SUMMARY VOLUMETRIC BUDGET FOR GSFLOW 
 DATE: 12 02 1980              CUMULATIVE TIME STEP:      63
 MODFLOW STRESS PERIOD      2     CURRENT TIME STEP:      63     ITERATIONS:       8

 -----------------------------------------------------------------------------------

   CUMULATIVE VOLUMES               L**3   RATES FOR THIS TIME STEP           L**3/T
   ------------------                      ------------------------

                                     IN                                         IN
                                     --                                         --
        PRECIPITATION =        2076620.74          PRECIPITATION =                  
           STREAMFLOW =                               STREAMFLOW =                  
     GW BOUNDARY FLOW =                         GW BOUNDARY FLOW =                  


                                    OUT                                        OUT
                                    ---                                        ---
   EVAPOTRANSPIRATION =        1423644.25     EVAPOTRANSPIRATION =          34188.85
           STREAMFLOW =         523307.60             STREAMFLOW =          15235.48
     GW BOUNDARY FLOW =          40875.74       GW BOUNDARY FLOW =            649.44

   INFLOWS - OUTFLOWS =          88793.14     INFLOWS - OUTFLOWS =         -50073.77
             --------                                   --------

 TOTAL STORAGE CHANGE =          93499.41         STORAGE CHANGE =         -50018.55
       --------------                             --------------
         LAND SURFACE =         152558.40           LAND SURFACE =         -75202.38
            SOIL ZONE =        1286008.57              SOIL ZONE =          42854.31
     UNSATURATED ZONE =       -1114354.98       UNSATURATED ZONE =         -13043.81
       SATURATED ZONE =        -230712.59         SATURATED ZONE =          -4626.68

 OVERALL BUDGET ERROR =          -4706.26           BUDGET ERROR =            -55.22


  PERCENT DISCREPANCY =             -0.23    PERCENT DISCREPANCY =             -0.11



1
 SUMMARY VOLUMETRIC BUDGET FOR GSFLOW 
 DATE: 12 09 1980              CUMULATIVE TIME STEP:      70
 MODFLOW STRESS PERIOD      2     CURRENT TIME STEP:      70     ITERATIONS:       8

 -----------------------------------------------------------------------------------

   CUMULATIVE VOLUMES               L**3   RATES FOR THIS TIME STEP           L**3/T
   ------------------                      ------------------------

                                     IN                                         IN
                                     --                                         --
        PRECIPITATION =        4284363.13          PRECIPITATION =                  
           STREAMFLOW =                               STREAMFLOW =                  
     GW BOUNDARY FLOW =                         GW BOUNDARY FLOW =                  


                                    OUT                                        OUT
                                    ---                                        ---
   EVAPOTRANSPIRATION =        1447062.89     EVAPOTRANSPIRATION =           2942.37
           STREAMFLOW =         622576.79             STREAMFLOW =          14459.92
     GW BOUNDARY FLOW =          45422.60       GW BOUNDARY FLOW =            649.64

   INFLOWS - OUTFLOWS =        2169300.85     INFLOWS - OUTFLOWS =         -18051.93
             --------                                   --------

 TOTAL STORAGE CHANGE =        2174481.22         STORAGE CHANGE =         -18003.72
       --------------                             --------------
         LAND SURFACE =        2335225.13           LAND SURFACE =          -2942.37
            SOIL ZONE =        1321839.76              SOIL ZONE =           5169.36
     UNSATURATED ZONE =       -1212716.84       UNSATURATED ZONE =         -14219.65
       SATURATED ZONE =        -269866.83         SATURATED ZONE =          -6011.05

 OVERALL BUDGET ERROR =          -5180.37           BUDGET ERROR =            -48.22


  PERCENT DISCREPANCY =             -0.12    PERCENT DISCREPANCY =             -0.27



1
 SUMMARY VOLUMETRIC BUDGET FOR GSFLOW 
 DATE: 12 16 1980              CUMULATIVE TIME STEP:      77
 MODFLOW STRESS PERIOD      2     CURRENT TIME STEP:      77     ITERATIONS:       7

 -----------------------------------------------------------------------------------

   CUMULATIVE VOLUMES               L**3   RATES FOR THIS TIME STEP           L**3/T
   ------------------                      ------------------------

                                     IN                                         IN
                                     --                                         --
        PRECIPITATION =        4284363.13          PRECIPITATION =                  
           STREAMFLOW =                               STREAMFLOW =                  
     GW BOUNDARY FLOW =                         GW BOUNDARY FLOW =                  


                                    OUT                                        OUT
                                    ---                                        ---
   EVAPOTRANSPIRATION =        1589062.50     EVAPOTRANSPIRATION =          33888.91
           STREAMFLOW =         742118.81             STREAMFLOW =          24743.96
     GW BOUNDARY FLOW =          49971.18       GW BOUNDARY FLOW =            650.23

   INFLOWS - OUTFLOWS =        1903210.63     INFLOWS - OUTFLOWS =         -59283.10
             --------                                   --------

 TOTAL STORAGE CHANGE =        1908818.18         STORAGE CHANGE =         -59212.84
       --------------                             --------------
         LAND SURFACE =        2023963.99           LAND SURFACE =        -129017.63
            SOIL ZONE =        1498052.66              SOIL ZONE =          83497.76
     UNSATURATED ZONE =       -1302769.79       UNSATURATED ZONE =          -9208.45
       SATURATED ZONE =        -310428.67         SATURATED ZONE =          -4484.53

 OVERALL BUDGET ERROR =          -5607.55           BUDGET ERROR =            -70.26


  PERCENT DISCREPANCY =             -0.13    PERCENT DISCREPANCY =             -0.12



1
 SUMMARY VOLUMETRIC BUDGET FOR GSFLOW 
 DATE: 12 23 1980              CUMULATIVE TIME STEP:      84
 MODFLOW STRESS PERIOD      2     CURRENT TIME STEP:      84     ITERATIONS:       9

 -----------------------------------------------------------------------------------

   CUMULATIVE VOLUMES               L**3   RATES FOR THIS TIME STEP           L**3/T
   ------------------                      ------------------------

                                     IN                                         IN
                                     --                                         --
        PRECIPITATION =        4516755.31          PRECIPITATION =                  
           STREAMFLOW =                               STREAMFLOW =                  
     GW BOUNDARY FLOW =                         GW BOUNDARY FLOW =                  


                                    OUT                                        OUT
                                    ---                                        ---
   EVAPOTRANSPIRATION =        1795114.88     EVAPOTRANSPIRATION =          35140.80
           STREAMFLOW =         968025.22             STREAMFLOW =          30090.57
     GW BOUNDARY FLOW =          54531.42       GW BOUNDARY FLOW =            651.90

   INFLOWS - OUTFLOWS =        1699083.79     INFLOWS - OUTFLOWS =         -65883.27
             --------                                   --------

 TOTAL STORAGE CHANGE =        1705002.85         STORAGE CHANGE =         -65849.00
       --------------                             --------------
         LAND SURFACE =        1433308.52           LAND SURFACE =         -48192.94
            SOIL ZONE =        1956963.46              SOIL ZONE =          -6624.34
     UNSATURATED ZONE =       -1346313.82       UNSATURATED ZONE =          -6291.05
       SATURATED ZONE =        -338955.31         SATURATED ZONE =          -4740.67

 OVERALL BUDGET ERROR =          -5919.06           BUDGET ERROR =            -34.27


  PERCENT DISCREPANCY =             -0.13    PERCENT DISCREPANCY =             -0.05



1
 SUMMARY VOLUMETRIC BUDGET FOR GSFLOW 
 DATE: 12 30 1980              CUMULATIVE TIME STEP:      91
 MODFLOW STRESS PERIOD      2     CURRENT TIME STEP:      91     ITERATIONS:       9

 -----------------------------------------------------------------------------------

   CUMULATIVE VOLUMES               L**3   RATES FOR THIS TIME STEP           L**3/T
   ------------------                      ------------------------

                                     IN                                         IN
                                     --                                         --
        PRECIPITATION =        4516755.31          PRECIPITATION =                  
           STREAMFLOW =                               STREAMFLOW =                  
     GW BOUNDARY FLOW =                         GW BOUNDARY FLOW =                  


                                    OUT                                        OUT
                                    ---                                        ---
   EVAPOTRANSPIRATION =        2155741.24     EVAPOTRANSPIRATION =          45887.39
           STREAMFLOW =        1211958.79             STREAMFLOW =          27166.03
     GW BOUNDARY FLOW =          59097.99       GW BOUNDARY FLOW =            652.35

   INFLOWS - OUTFLOWS =        1089957.29     INFLOWS - OUTFLOWS =         -73705.77
             --------                                   --------

 TOTAL STORAGE CHANGE =        1096060.54         STORAGE CHANGE =         -73682.10
       --------------                             --------------
         LAND SURFACE =         641176.37           LAND SURFACE =         -40371.69
            SOIL ZONE =        2181736.14              SOIL ZONE =         -23717.73
     UNSATURATED ZONE =       -1361626.49       UNSATURATED ZONE =          -5205.50
       SATURATED ZONE =        -365225.48         SATURATED ZONE =          -4387.19

 OVERALL BUDGET ERROR =          -6103.25           BUDGET ERROR =            -23.67


  PERCENT DISCREPANCY =             -0.14    PERCENT DISCREPANCY =             -0.03



1
 SUMMARY VOLUMETRIC BUDGET FOR GSFLOW 
 DATE: 01 06 1981              CUMULATIVE TIME STEP:      98
 MODFLOW STRESS PERIOD      2     CURRENT TIME STEP:      98     ITERATIONS:       8

 -----------------------------------------------------------------------------------

   CUMULATIVE VOLUMES               L**3   RATES FOR THIS TIME STEP           L**3/T
   ------------------                      ------------------------

                                     IN                                         IN
                                     --                                         --
        PRECIPITATION =        5004445.82          PRECIPITATION =                  
           STREAMFLOW =                               STREAMFLOW =                  
     GW BOUNDARY FLOW =                         GW BOUNDARY FLOW =                  


                                    OUT                                        OUT
                                    ---                                        ---
   EVAPOTRANSPIRATION =        2383663.38     EVAPOTRANSPIRATION =          21388.47
           STREAMFLOW =        1365806.44             STREAMFLOW =          21180.17
     GW BOUNDARY FLOW =          63659.51       GW BOUNDARY FLOW =            651.25

   INFLOWS - OUTFLOWS =        1191316.49     INFLOWS - OUTFLOWS =         -43219.88
             --------                                   --------

 TOTAL STORAGE CHANGE =        1197635.58         STORAGE CHANGE =         -43183.73
       --------------                             --------------
         LAND SURFACE =         837061.68           LAND SURFACE =         -30417.13
            SOIL ZONE =        2192536.97              SOIL ZONE =           3031.63
     UNSATURATED ZONE =       -1428729.00       UNSATURATED ZONE =         -10080.55
       SATURATED ZONE =        -403234.07         SATURATED ZONE =          -5717.68

 OVERALL BUDGET ERROR =          -6319.09           BUDGET ERROR =            -36.15


  PERCENT DISCREPANCY =             -0.13    PERCENT DISCREPANCY =             -0.08



1
 SUMMARY VOLUMETRIC BUDGET FOR GSFLOW 
 DATE: 01 13 1981              CUMULATIVE TIME STEP:     105
 MODFLOW STRESS PERIOD      2     CURRENT TIME STEP:     105     ITERATIONS:       7

 -----------------------------------------------------------------------------------

   CUMULATIVE VOLUMES               L**3   RATES FOR THIS TIME STEP           L**3/T
   ------------------                      ------------------------

                                     IN                                         IN
                                     --                                         --
        PRECIPITATION =        5004445.82          PRECIPITATION =                  
           STREAMFLOW =                               STREAMFLOW =                  
     GW BOUNDARY FLOW =                         GW BOUNDARY FLOW =                  


                                    OUT                                        OUT
                                    ---                                        ---
   EVAPOTRANSPIRATION =        2601178.23     EVAPOTRANSPIRATION =          44454.58
           STREAMFLOW =        1513559.16             STREAMFLOW =          20001.63
     GW BOUNDARY FLOW =          68216.62       GW BOUNDARY FLOW =            650.83

   INFLOWS - OUTFLOWS =         821491.81     INFLOWS - OUTFLOWS =         -65107.04
             --------                                   --------

 TOTAL STORAGE CHANGE =         828199.76         STORAGE CHANGE =         -65045.39
       --------------                             --------------
         LAND SURFACE =         626703.68           LAND SURFACE =         -38989.03
            SOIL ZONE =        2141703.62              SOIL ZONE =         -10386.56
     UNSATURATED ZONE =       -1493716.58       UNSATURATED ZONE =          -9175.72
       SATURATED ZONE =        -446490.96         SATURATED ZONE =          -6494.08

 OVERALL BUDGET ERROR =          -6707.96           BUDGET ERROR =            -61.66


  PERCENT DISCREPANCY =             -0.13    PERCENT DISCREPANCY =             -0.09



1
 SUMMARY VOLUMETRIC BUDGET FOR GSFLOW 
 DATE: 01 20 1981              CUMULATIVE TIME STEP:     112
 MODFLOW STRESS PERIOD      2     CURRENT TIME STEP:     112     ITERATIONS:       8

 -----------------------------------------------------------------------------------

   CUMULATIVE VOLUMES               L**3   RATES FOR THIS TIME STEP           L**3/T
   ------------------                      ------------------------

                                     IN                                         IN
                                     --                                         --
        PRECIPITATION =        5170468.48          PRECIPITATION =          41503.16
           STREAMFLOW =                               STREAMFLOW =                  
     GW BOUNDARY FLOW =                         GW BOUNDARY FLOW =                  


                                    OUT                                        OUT
                                    ---                                        ---
   EVAPOTRANSPIRATION =        2883448.01     EVAPOTRANSPIRATION =          35212.06
           STREAMFLOW =        1654845.47             STREAMFLOW =          20081.36
     GW BOUNDARY FLOW =          72771.39       GW BOUNDARY FLOW =            650.64

   INFLOWS - OUTFLOWS =         559403.61     INFLOWS - OUTFLOWS =         -14440.90
             --------                                   --------

 TOTAL STORAGE CHANGE =         566440.89         STORAGE CHANGE =         -14405.03
       --------------                             --------------
         LAND SURFACE =         436309.37           LAND SURFACE =           4324.83
            SOIL ZONE =        2147621.61              SOIL ZONE =         -10132.87
     UNSATURATED ZONE =       -1526440.23       UNSATURATED ZONE =          -1920.97
       SATURATED ZONE =        -491049.86         SATURATED ZONE =          -6676.02

 OVERALL BUDGET ERROR =          -7037.27           BUDGET ERROR =            -35.87


  PERCENT DISCREPANCY =             -0.14    PERCENT DISCREPANCY =             -0.06



1
 SUMMARY VOLUMETRIC BUDGET FOR GSFLOW 
 DATE: 01 27 1981              CUMULATIVE TIME STEP:     119
 MODFLOW STRESS PERIOD      2     CURRENT TIME STEP:     119     ITERATIONS:       9

 -----------------------------------------------------------------------------------

   CUMULATIVE VOLUMES               L**3   RATES FOR THIS TIME STEP           L**3/T
   ------------------                      ------------------------

                                     IN                                         IN
                                     --                                         --
        PRECIPITATION =        8646542.90          PRECIPITATION =        2936504.96
           STREAMFLOW =                               STREAMFLOW =                  
     GW BOUNDARY FLOW =                         GW BOUNDARY FLOW =                  


                                    OUT                                        OUT
                                    ---                                        ---
   EVAPOTRANSPIRATION =        3118016.20     EVAPOTRANSPIRATION =          13121.10
           STREAMFLOW =        1800219.27             STREAMFLOW =          18659.20
     GW BOUNDARY FLOW =          77325.71       GW BOUNDARY FLOW =            650.44

   INFLOWS - OUTFLOWS =        3650981.72     INFLOWS - OUTFLOWS =        2904074.22
             --------                                   --------

 TOTAL STORAGE CHANGE =        3658168.19         STORAGE CHANGE =        2904099.82
       --------------                             --------------
         LAND SURFACE =        3540208.69           LAND SURFACE =        2923350.57
            SOIL ZONE =        2170191.65              SOIL ZONE =          -7607.38
     UNSATURATED ZONE =       -1515768.11       UNSATURATED ZONE =          -4735.32
       SATURATED ZONE =        -536464.04         SATURATED ZONE =          -6908.05

 OVERALL BUDGET ERROR =          -7186.47           BUDGET ERROR =            -25.60


  PERCENT DISCREPANCY =             -0.08    PERCENT DISCREPANCY =             -0.00



1
 SUMMARY VOLUMETRIC BUDGET FOR GSFLOW 
 DATE: 02 03 1981              CUMULATIVE TIME STEP:     126
 MODFLOW STRESS PERIOD      2     CURRENT TIME STEP:     126     ITERATIONS:       9

 -----------------------------------------------------------------------------------

   CUMULATIVE VOLUMES               L**3   RATES FOR THIS TIME STEP           L**3/T
   ------------------                      ------------------------

                                     IN                                         IN
                                     --                                         --
        PRECIPITATION =        1.1739D+07          PRECIPITATION =                  
           STREAMFLOW =                               STREAMFLOW =                  
     GW BOUNDARY FLOW =                         GW BOUNDARY FLOW =                  


                                    OUT                                        OUT
                                    ---                                        ---
   EVAPOTRANSPIRATION =        3154529.09     EVAPOTRANSPIRATION =           6975.55
           STREAMFLOW =        1926751.98             STREAMFLOW =          17968.79
     GW BOUNDARY FLOW =          81877.80       GW BOUNDARY FLOW =            650.25

   INFLOWS - OUTFLOWS =        6575538.92     INFLOWS - OUTFLOWS =         -25594.58
             --------                                   --------

 TOTAL STORAGE CHANGE =        6582957.93         STORAGE CHANGE =         -25568.36
       --------------                             --------------
         LAND SURFACE =        6595850.65           LAND SURFACE =          -6975.55
            SOIL ZONE =        2159040.33              SOIL ZONE =            453.18
     UNSATURATED ZONE =       -1583652.73       UNSATURATED ZONE =         -11334.79
       SATURATED ZONE =        -588280.32         SATURATED ZONE =          -7711.20

 OVERALL BUDGET ERROR =          -7419.02           BUDGET ERROR =            -26.22


  PERCENT DISCREPANCY =             -0.06    PERCENT DISCREPANCY =             -0.10



1
 SUMMARY VOLUMETRIC BUDGET FOR GSFLOW 
 DATE: 02 10 1981              CUMULATIVE TIME STEP:     133
 MODFLOW STRESS PERIOD      2     CURRENT TIME STEP:     133     ITERATIONS:       7

 -----------------------------------------------------------------------------------

   CUMULATIVE VOLUMES               L**3   RATES FOR THIS TIME STEP           L**3/T
   ------------------                      ------------------------

                                     IN                                         IN
                                     --                                         --
        PRECIPITATION =        1.1838D+07          PRECIPITATION =                  
           STREAMFLOW =                               STREAMFLOW =                  
     GW BOUNDARY FLOW =                         GW BOUNDARY FLOW =                  


                                    OUT                                        OUT
                                    ---                                        ---
   EVAPOTRANSPIRATION =        3279930.33     EVAPOTRANSPIRATION =          32880.24
           STREAMFLOW =        2052799.86             STREAMFLOW =          18033.62
     GW BOUNDARY FLOW =          86429.54       GW BOUNDARY FLOW =            650.24

   INFLOWS - OUTFLOWS =        6419103.51     INFLOWS - OUTFLOWS =         -51564.10
             --------                                   --------

 TOTAL STORAGE CHANGE =        6426789.20         STORAGE CHANGE =         -51490.34
       --------------                             --------------
         LAND SURFACE =        6570014.87           LAND SURFACE =         -32880.24
            SOIL ZONE =        2163253.21              SOIL ZONE =            571.51
     UNSATURATED ZONE =       -1661794.09       UNSATURATED ZONE =         -10825.13
       SATURATED ZONE =        -644684.79         SATURATED ZONE =          -8356.49

 OVERALL BUDGET ERROR =          -7685.69           BUDGET ERROR =            -73.75


  PERCENT DISCREPANCY =             -0.06    PERCENT DISCREPANCY =             -0.14



1
 SUMMARY VOLUMETRIC BUDGET FOR GSFLOW 
 DATE: 02 17 1981              CUMULATIVE TIME STEP:     140
 MODFLOW STRESS PERIOD      2     CURRENT TIME STEP:     140     ITERATIONS:      14

 -----------------------------------------------------------------------------------

   CUMULATIVE VOLUMES               L**3   RATES FOR THIS TIME STEP           L**3/T
   ------------------                      ------------------------

                                     IN                                         IN
                                     --                                         --
        PRECIPITATION =        1.2765D+07          PRECIPITATION =          68928.68
           STREAMFLOW =                               STREAMFLOW =                  
     GW BOUNDARY FLOW =                         GW BOUNDARY FLOW =                  


                                    OUT                                        OUT
                                    ---                                        ---
   EVAPOTRANSPIRATION =        3618019.88     EVAPOTRANSPIRATION =          68604.82
           STREAMFLOW =        2593964.84             STREAMFLOW =         124817.82
     GW BOUNDARY FLOW =          91003.31       GW BOUNDARY FLOW =            656.82

   INFLOWS - OUTFLOWS =        6461992.63     INFLOWS - OUTFLOWS =        -125150.78
             --------                                   --------

 TOTAL STORAGE CHANGE =        6469960.50         STORAGE CHANGE =        -125135.23
       --------------                             --------------
         LAND SURFACE =        5590136.74           LAND SURFACE =        -278668.69
            SOIL ZONE =        2957732.73              SOIL ZONE =          72138.76
     UNSATURATED ZONE =       -1416847.15       UNSATURATED ZONE =          78941.19
       SATURATED ZONE =        -661061.83         SATURATED ZONE =           2453.52

 OVERALL BUDGET ERROR =          -7967.86           BUDGET ERROR =            -15.56


  PERCENT DISCREPANCY =             -0.06    PERCENT DISCREPANCY =             -0.01



1
 SUMMARY VOLUMETRIC BUDGET FOR GSFLOW 
 DATE: 02 24 1981              CUMULATIVE TIME STEP:     147
 MODFLOW STRESS PERIOD      2     CURRENT TIME STEP:     147     ITERATIONS:      14

 -----------------------------------------------------------------------------------

   CUMULATIVE VOLUMES               L**3   RATES FOR THIS TIME STEP           L**3/T
   ------------------                      ------------------------

                                     IN                                         IN
                                     --                                         --
        PRECIPITATION =        1.3179D+07          PRECIPITATION =         344647.71
           STREAMFLOW =                               STREAMFLOW =                  
     GW BOUNDARY FLOW =                         GW BOUNDARY FLOW =                  


                                    OUT                                        OUT
                                    ---                                        ---
   EVAPOTRANSPIRATION =        3959342.15     EVAPOTRANSPIRATION =          18832.86
           STREAMFLOW =        3151384.95             STREAMFLOW =          52021.08
     GW BOUNDARY FLOW =          95596.36       GW BOUNDARY FLOW =            655.14

   INFLOWS - OUTFLOWS =        5972234.99     INFLOWS - OUTFLOWS =         273138.63
             --------                                   --------

 TOTAL STORAGE CHANGE =        5980163.20         STORAGE CHANGE =         273141.24
       --------------                             --------------
         LAND SURFACE =        4984331.51           LAND SURFACE =         286391.25
            SOIL ZONE =        2697188.48              SOIL ZONE =         -43322.79
     UNSATURATED ZONE =       -1063798.07       UNSATURATED ZONE =          27646.20
       SATURATED ZONE =        -637558.71         SATURATED ZONE =           2426.58

 OVERALL BUDGET ERROR =          -7928.20           BUDGET ERROR =             -2.62


  PERCENT DISCREPANCY =             -0.06    PERCENT DISCREPANCY =             -0.00



1
 SUMMARY VOLUMETRIC BUDGET FOR GSFLOW 
 DATE: 03 03 1981              CUMULATIVE TIME STEP:     154
 MODFLOW STRESS PERIOD      2     CURRENT TIME STEP:     154     ITERATIONS:      11

 -----------------------------------------------------------------------------------

   CUMULATIVE VOLUMES               L**3   RATES FOR THIS TIME STEP           L**3/T
   ------------------                      ------------------------

                                     IN                                         IN
                                     --                                         --
        PRECIPITATION =        1.3447D+07          PRECIPITATION =                  
           STREAMFLOW =                               STREAMFLOW =                  
     GW BOUNDARY FLOW =                         GW BOUNDARY FLOW =                  


                                    OUT                                        OUT
                                    ---                                        ---
   EVAPOTRANSPIRATION =        4120023.75     EVAPOTRANSPIRATION =          45353.37
           STREAMFLOW =        3375191.15             STREAMFLOW =          27756.09
     GW BOUNDARY FLOW =         100169.25       GW BOUNDARY FLOW =            652.32

   INFLOWS - OUTFLOWS =        5851234.64     INFLOWS - OUTFLOWS =         -73761.78
             --------                                   --------

 TOTAL STORAGE CHANGE =        5859058.59         STORAGE CHANGE =         -73781.66
       --------------                             --------------
         LAND SURFACE =        5068234.96           LAND SURFACE =         -66032.09
            SOIL ZONE =        2489410.11              SOIL ZONE =           2838.54
     UNSATURATED ZONE =       -1056086.52       UNSATURATED ZONE =          -8517.92
       SATURATED ZONE =        -642499.96         SATURATED ZONE =          -2070.19

 OVERALL BUDGET ERROR =          -7823.95           BUDGET ERROR =             19.88


  PERCENT DISCREPANCY =             -0.06    PERCENT DISCREPANCY =              0.03



1
 SUMMARY VOLUMETRIC BUDGET FOR GSFLOW 
 DATE: 03 10 1981              CUMULATIVE TIME STEP:     161
 MODFLOW STRESS PERIOD      2     CURRENT TIME STEP:     161     ITERATIONS:      10

 -----------------------------------------------------------------------------------

   CUMULATIVE VOLUMES               L**3   RATES FOR THIS TIME STEP           L**3/T
   ------------------                      ------------------------

                                     IN                                         IN
                                     --                                         --
        PRECIPITATION =        1.3493D+07          PRECIPITATION =                  
           STREAMFLOW =                               STREAMFLOW =                  
     GW BOUNDARY FLOW =                         GW BOUNDARY FLOW =                  


                                    OUT                                        OUT
                                    ---                                        ---
   EVAPOTRANSPIRATION =        4465806.19     EVAPOTRANSPIRATION =          72809.14
           STREAMFLOW =        3611070.01             STREAMFLOW =          43638.27
     GW BOUNDARY FLOW =         104735.29       GW BOUNDARY FLOW =            652.93

   INFLOWS - OUTFLOWS =        5311343.02     INFLOWS - OUTFLOWS =        -117100.35
             --------                                   --------

 TOTAL STORAGE CHANGE =        5319101.03         STORAGE CHANGE =        -117109.51
       --------------                             --------------
         LAND SURFACE =        4391776.94           LAND SURFACE =        -169082.62
            SOIL ZONE =        2603419.05              SOIL ZONE =          28948.65
     UNSATURATED ZONE =       -1021621.40       UNSATURATED ZONE =          23450.50
       SATURATED ZONE =        -654473.56         SATURATED ZONE =           -426.04

 OVERALL BUDGET ERROR =          -7758.02           BUDGET ERROR =              9.16


  PERCENT DISCREPANCY =             -0.06    PERCENT DISCREPANCY =              0.01



1
 SUMMARY VOLUMETRIC BUDGET FOR GSFLOW 
 DATE: 03 17 1981              CUMULATIVE TIME STEP:     168
 MODFLOW STRESS PERIOD      2     CURRENT TIME STEP:     168     ITERATIONS:       9

 -----------------------------------------------------------------------------------

   CUMULATIVE VOLUMES               L**3   RATES FOR THIS TIME STEP           L**3/T
   ------------------                      ------------------------

                                     IN                                         IN
                                     --                                         --
        PRECIPITATION =        1.3745D+07          PRECIPITATION =                  
           STREAMFLOW =                               STREAMFLOW =                  
     GW BOUNDARY FLOW =                         GW BOUNDARY FLOW =                  


                                    OUT                                        OUT
                                    ---                                        ---
   EVAPOTRANSPIRATION =        4834210.93     EVAPOTRANSPIRATION =          40234.43
           STREAMFLOW =        3838018.20             STREAMFLOW =          24123.26
     GW BOUNDARY FLOW =         109302.57       GW BOUNDARY FLOW =            651.88

   INFLOWS - OUTFLOWS =        4962971.12     INFLOWS - OUTFLOWS =         -65009.57
             --------                                   --------

 TOTAL STORAGE CHANGE =        4970638.06         STORAGE CHANGE =         -65014.28
       --------------                             --------------
         LAND SURFACE =        4202563.01           LAND SURFACE =         -39897.20
            SOIL ZONE =        2437966.61              SOIL ZONE =          -5412.25
     UNSATURATED ZONE =        -999555.18       UNSATURATED ZONE =         -15649.30
       SATURATED ZONE =        -670336.39         SATURATED ZONE =          -4055.54

 OVERALL BUDGET ERROR =          -7666.94           BUDGET ERROR =              4.72


  PERCENT DISCREPANCY =             -0.06    PERCENT DISCREPANCY =              0.01



1
 SUMMARY VOLUMETRIC BUDGET FOR GSFLOW 
 DATE: 03 24 1981              CUMULATIVE TIME STEP:     175
 MODFLOW STRESS PERIOD      2     CURRENT TIME STEP:     175     ITERATIONS:       9

 -----------------------------------------------------------------------------------

   CUMULATIVE VOLUMES               L**3   RATES FOR THIS TIME STEP           L**3/T
   ------------------                      ------------------------

                                     IN                                         IN
                                     --                                         --
        PRECIPITATION =        1.4367D+07          PRECIPITATION =                  
           STREAMFLOW =                               STREAMFLOW =                  
     GW BOUNDARY FLOW =                         GW BOUNDARY FLOW =                  


                                    OUT                                        OUT
                                    ---                                        ---
   EVAPOTRANSPIRATION =        5189993.19     EVAPOTRANSPIRATION =          87430.63
           STREAMFLOW =        4013656.12             STREAMFLOW =          26789.11
     GW BOUNDARY FLOW =         113863.01       GW BOUNDARY FLOW =            651.45

   INFLOWS - OUTFLOWS =        5049243.92     INFLOWS - OUTFLOWS =        -114871.19
             --------                                   --------

 TOTAL STORAGE CHANGE =        5056939.09         STORAGE CHANGE =        -114866.71
       --------------                             --------------
         LAND SURFACE =        4477883.40           LAND SURFACE =         -65021.85
            SOIL ZONE =        2350759.79              SOIL ZONE =         -41066.67
     UNSATURATED ZONE =       -1068856.00       UNSATURATED ZONE =          -3960.78
       SATURATED ZONE =        -702848.09         SATURATED ZONE =          -4817.42

 OVERALL BUDGET ERROR =          -7695.17           BUDGET ERROR =             -4.48


  PERCENT DISCREPANCY =             -0.05    PERCENT DISCREPANCY =             -0.00



1
 SUMMARY VOLUMETRIC BUDGET FOR GSFLOW 
 DATE: 03 31 1981              CUMULATIVE TIME STEP:     182
 MODFLOW STRESS PERIOD      2     CURRENT TIME STEP:     182     ITERATIONS:      12

 -----------------------------------------------------------------------------------

   CUMULATIVE VOLUMES               L**3   RATES FOR THIS TIME STEP           L**3/T
   ------------------                      ------------------------

                                     IN                                         IN
                                     --                                         --
        PRECIPITATION =        1.5777D+07          PRECIPITATION =                  
           STREAMFLOW =                               STREAMFLOW =                  
     GW BOUNDARY FLOW =                         GW BOUNDARY FLOW =                  


                                    OUT                                        OUT
                                    ---                                        ---
   EVAPOTRANSPIRATION =        5619923.96     EVAPOTRANSPIRATION =          54089.89
           STREAMFLOW =        4522401.86             STREAMFLOW =          37100.95
     GW BOUNDARY FLOW =         118445.01       GW BOUNDARY FLOW =            653.60

   INFLOWS - OUTFLOWS =        5515995.35     INFLOWS - OUTFLOWS =         -91844.43
             --------                                   --------

 TOTAL STORAGE CHANGE =        5523622.00         STORAGE CHANGE =         -91863.52
       --------------                             --------------
         LAND SURFACE =        4494493.37           LAND SURFACE =         -55486.84
            SOIL ZONE =        2547198.40              SOIL ZONE =         -41725.71
     UNSATURATED ZONE =        -823498.04       UNSATURATED ZONE =           5910.51
       SATURATED ZONE =        -694571.73         SATURATED ZONE =           -561.48

 OVERALL BUDGET ERROR =          -7626.65           BUDGET ERROR =             19.09


  PERCENT DISCREPANCY =             -0.05    PERCENT DISCREPANCY =              0.02



1
 SUMMARY VOLUMETRIC BUDGET FOR GSFLOW 
 DATE: 04 07 1981              CUMULATIVE TIME STEP:     189
 MODFLOW STRESS PERIOD      2     CURRENT TIME STEP:     189     ITERATIONS:      10

 -----------------------------------------------------------------------------------

   CUMULATIVE VOLUMES               L**3   RATES FOR THIS TIME STEP           L**3/T
   ------------------                      ------------------------

                                     IN                                         IN
                                     --                                         --
        PRECIPITATION =        1.6121D+07          PRECIPITATION =                  
           STREAMFLOW =                               STREAMFLOW =                  
     GW BOUNDARY FLOW =                         GW BOUNDARY FLOW =                  


                                    OUT                                        OUT
                                    ---                                        ---
   EVAPOTRANSPIRATION =        6245988.09     EVAPOTRANSPIRATION =         103842.76
           STREAMFLOW =        4840686.51             STREAMFLOW =          43396.60
     GW BOUNDARY FLOW =         123020.31       GW BOUNDARY FLOW =            653.73

   INFLOWS - OUTFLOWS =        4911788.24     INFLOWS - OUTFLOWS =        -147893.09
             --------                                   --------

 TOTAL STORAGE CHANGE =        4919288.17         STORAGE CHANGE =        -147910.54
       --------------                             --------------
         LAND SURFACE =        3870392.88           LAND SURFACE =        -138669.71
            SOIL ZONE =        2478576.68              SOIL ZONE =         -20331.90
     UNSATURATED ZONE =        -739041.70       UNSATURATED ZONE =          10756.83
       SATURATED ZONE =        -690639.69         SATURATED ZONE =            334.24

 OVERALL BUDGET ERROR =          -7499.93           BUDGET ERROR =             17.45


  PERCENT DISCREPANCY =             -0.05    PERCENT DISCREPANCY =              0.01



1
 SUMMARY VOLUMETRIC BUDGET FOR GSFLOW 
 DATE: 04 14 1981              CUMULATIVE TIME STEP:     196
 MODFLOW STRESS PERIOD      2     CURRENT TIME STEP:     196     ITERATIONS:      13

 -----------------------------------------------------------------------------------

   CUMULATIVE VOLUMES               L**3   RATES FOR THIS TIME STEP           L**3/T
   ------------------                      ------------------------

                                     IN                                         IN
                                     --                                         --
        PRECIPITATION =        1.6121D+07          PRECIPITATION =                  
           STREAMFLOW =                               STREAMFLOW =                  
     GW BOUNDARY FLOW =                         GW BOUNDARY FLOW =                  


                                    OUT                                        OUT
                                    ---                                        ---
   EVAPOTRANSPIRATION =        7156677.83     EVAPOTRANSPIRATION =         191910.02
           STREAMFLOW =        5167818.22             STREAMFLOW =          55463.93
     GW BOUNDARY FLOW =         127595.69       GW BOUNDARY FLOW =            653.68

   INFLOWS - OUTFLOWS =        3669391.41     INFLOWS - OUTFLOWS =        -248027.63
             --------                                   --------

 TOTAL STORAGE CHANGE =        3676782.54         STORAGE CHANGE =        -248032.52
       --------------                             --------------
         LAND SURFACE =        2621639.71           LAND SURFACE =        -253015.87
            SOIL ZONE =        2387020.24              SOIL ZONE =         -16778.17
     UNSATURATED ZONE =        -647930.25       UNSATURATED ZONE =          19708.33
       SATURATED ZONE =        -683947.16         SATURATED ZONE =           2053.20

 OVERALL BUDGET ERROR =          -7391.13           BUDGET ERROR =              4.89


  PERCENT DISCREPANCY =             -0.05    PERCENT DISCREPANCY =              0.00



1
 SUMMARY VOLUMETRIC BUDGET FOR GSFLOW 
 DATE: 04 21 1981              CUMULATIVE TIME STEP:     203
 MODFLOW STRESS PERIOD      2     CURRENT TIME STEP:     203     ITERATIONS:      12

 -----------------------------------------------------------------------------------

   CUMULATIVE VOLUMES               L**3   RATES FOR THIS TIME STEP           L**3/T
   ------------------                      ------------------------

                                     IN                                         IN
                                     --                                         --
        PRECIPITATION =        1.6310D+07          PRECIPITATION =                  
           STREAMFLOW =                               STREAMFLOW =                  
     GW BOUNDARY FLOW =                         GW BOUNDARY FLOW =                  


                                    OUT                                        OUT
                                    ---                                        ---
   EVAPOTRANSPIRATION =        8228635.54     EVAPOTRANSPIRATION =         152247.12
           STREAMFLOW =        5507017.10             STREAMFLOW =          45789.33
     GW BOUNDARY FLOW =         132167.13       GW BOUNDARY FLOW =            652.63

   INFLOWS - OUTFLOWS =        2442437.64     INFLOWS - OUTFLOWS =        -198689.08
             --------                                   --------

 TOTAL STORAGE CHANGE =        2449703.52         STORAGE CHANGE =        -198716.19
       --------------                             --------------
         LAND SURFACE =        1441063.64           LAND SURFACE =        -121364.40
            SOIL ZONE =        2205068.97              SOIL ZONE =         -97328.15
     UNSATURATED ZONE =        -529438.55       UNSATURATED ZONE =          17089.02
       SATURATED ZONE =        -666990.53         SATURATED ZONE =           2887.35

 OVERALL BUDGET ERROR =          -7265.88           BUDGET ERROR =             27.10


  PERCENT DISCREPANCY =             -0.04    PERCENT DISCREPANCY =              0.01



1
 SUMMARY VOLUMETRIC BUDGET FOR GSFLOW 
 DATE: 04 28 1981              CUMULATIVE TIME STEP:     210
 MODFLOW STRESS PERIOD      2     CURRENT TIME STEP:     210     ITERATIONS:      14

 -----------------------------------------------------------------------------------

   CUMULATIVE VOLUMES               L**3   RATES FOR THIS TIME STEP           L**3/T
   ------------------                      ------------------------

                                     IN                                         IN
                                     --                                         --
        PRECIPITATION =        1.6515D+07          PRECIPITATION =                  
           STREAMFLOW =                               STREAMFLOW =                  
     GW BOUNDARY FLOW =                         GW BOUNDARY FLOW =                  


                                    OUT                                        OUT
                                    ---                                        ---
   EVAPOTRANSPIRATION =        9467124.37     EVAPOTRANSPIRATION =         200398.99
           STREAMFLOW =        5719104.71             STREAMFLOW =          24668.28
     GW BOUNDARY FLOW =         136726.62       GW BOUNDARY FLOW =            650.47

   INFLOWS - OUTFLOWS =        1192491.25     INFLOWS - OUTFLOWS =        -225717.75
             --------                                   --------

 TOTAL STORAGE CHANGE =        1199640.44         STORAGE CHANGE =        -225736.02
       --------------                             --------------
         LAND SURFACE =         691620.73           LAND SURFACE =         -83515.74
            SOIL ZONE =        1694973.26              SOIL ZONE =        -138423.81
     UNSATURATED ZONE =        -527455.87       UNSATURATED ZONE =          -4087.47
       SATURATED ZONE =        -659497.68         SATURATED ZONE =            291.00

 OVERALL BUDGET ERROR =          -7149.19           BUDGET ERROR =             18.27


  PERCENT DISCREPANCY =             -0.04    PERCENT DISCREPANCY =              0.01



1
 SUMMARY VOLUMETRIC BUDGET FOR GSFLOW 
 DATE: 05 05 1981              CUMULATIVE TIME STEP:     217
 MODFLOW STRESS PERIOD      2     CURRENT TIME STEP:     217     ITERATIONS:      13

 -----------------------------------------------------------------------------------

   CUMULATIVE VOLUMES               L**3   RATES FOR THIS TIME STEP           L**3/T
   ------------------                      ------------------------

                                     IN                                         IN
                                     --                                         --
        PRECIPITATION =        1.6515D+07          PRECIPITATION =                  
           STREAMFLOW =                               STREAMFLOW =                  
     GW BOUNDARY FLOW =                         GW BOUNDARY FLOW =                  


                                    OUT                                        OUT
                                    ---                                        ---
   EVAPOTRANSPIRATION =        1.0354D+07     EVAPOTRANSPIRATION =          52071.84
           STREAMFLOW =        5824050.27             STREAMFLOW =          10603.71
     GW BOUNDARY FLOW =         141272.96       GW BOUNDARY FLOW =            648.78

   INFLOWS - OUTFLOWS =         196114.83     INFLOWS - OUTFLOWS =         -63324.32
             --------                                   --------

 TOTAL STORAGE CHANGE =         203196.75         STORAGE CHANGE =         -63329.51
       --------------                             --------------
         LAND SURFACE =         347403.61           LAND SURFACE =         -17503.36
            SOIL ZONE =        1153507.39              SOIL ZONE =         -26297.60
     UNSATURATED ZONE =        -624840.99       UNSATURATED ZONE =         -16448.01
       SATURATED ZONE =        -672873.26         SATURATED ZONE =          -3080.53

 OVERALL BUDGET ERROR =          -7081.91           BUDGET ERROR =              5.18


  PERCENT DISCREPANCY =             -0.04    PERCENT DISCREPANCY =              0.01



1
 SUMMARY VOLUMETRIC BUDGET FOR GSFLOW 
 DATE: 05 12 1981              CUMULATIVE TIME STEP:     224
 MODFLOW STRESS PERIOD      2     CURRENT TIME STEP:     224     ITERATIONS:      15

 -----------------------------------------------------------------------------------

   CUMULATIVE VOLUMES               L**3   RATES FOR THIS TIME STEP           L**3/T
   ------------------                      ------------------------

                                     IN                                         IN
                                     --                                         --
        PRECIPITATION =        1.6515D+07          PRECIPITATION =                  
           STREAMFLOW =                               STREAMFLOW =                  
     GW BOUNDARY FLOW =                         GW BOUNDARY FLOW =                  


                                    OUT                                        OUT
                                    ---                                        ---
   EVAPOTRANSPIRATION =        1.0874D+07     EVAPOTRANSPIRATION =          91407.24
           STREAMFLOW =        5893100.13             STREAMFLOW =          10122.26
     GW BOUNDARY FLOW =         145811.38       GW BOUNDARY FLOW =            648.17

   INFLOWS - OUTFLOWS =        -397856.39     INFLOWS - OUTFLOWS =        -102177.68
             --------                                   --------

 TOTAL STORAGE CHANGE =        -390772.07         STORAGE CHANGE =        -102172.17
       --------------                             --------------
         LAND SURFACE =         198720.95           LAND SURFACE =         -25499.92
            SOIL ZONE =         845403.34              SOIL ZONE =         -57519.82
     UNSATURATED ZONE =        -732088.02       UNSATURATED ZONE =         -13708.45
       SATURATED ZONE =        -702808.33         SATURATED ZONE =          -5443.98

 OVERALL BUDGET ERROR =          -7084.32           BUDGET ERROR =             -5.51


  PERCENT DISCREPANCY =             -0.04    PERCENT DISCREPANCY =             -0.01



1
 SUMMARY VOLUMETRIC BUDGET FOR GSFLOW 
 DATE: 05 19 1981              CUMULATIVE TIME STEP:     231
 MODFLOW STRESS PERIOD      2     CURRENT TIME STEP:     231     ITERATIONS:      15

 -----------------------------------------------------------------------------------

   CUMULATIVE VOLUMES               L**3   RATES FOR THIS TIME STEP           L**3/T
   ------------------                      ------------------------

                                     IN                                         IN
                                     --                                         --
        PRECIPITATION =        1.7837D+07          PRECIPITATION =         169047.83
           STREAMFLOW =                               STREAMFLOW =                  
     GW BOUNDARY FLOW =                         GW BOUNDARY FLOW =                  


                                    OUT                                        OUT
                                    ---                                        ---
   EVAPOTRANSPIRATION =        1.1232D+07     EVAPOTRANSPIRATION =          35342.78
           STREAMFLOW =        6017630.56             STREAMFLOW =          25672.98
     GW BOUNDARY FLOW =         150350.41       GW BOUNDARY FLOW =            649.44

   INFLOWS - OUTFLOWS =         436834.49     INFLOWS - OUTFLOWS =         107382.63
             --------                                   --------

 TOTAL STORAGE CHANGE =         443919.25         STORAGE CHANGE =         107387.69
       --------------                             --------------
         LAND SURFACE =         167126.53           LAND SURFACE =           4530.43
            SOIL ZONE =        1824302.59              SOIL ZONE =         110365.04
     UNSATURATED ZONE =        -804706.96       UNSATURATED ZONE =          -1976.97
       SATURATED ZONE =        -742802.90         SATURATED ZONE =          -5530.81

 OVERALL BUDGET ERROR =          -7084.76           BUDGET ERROR =             -5.06


  PERCENT DISCREPANCY =             -0.04    PERCENT DISCREPANCY =             -0.00



1
 SUMMARY VOLUMETRIC BUDGET FOR GSFLOW 
 DATE: 05 26 1981              CUMULATIVE TIME STEP:     238
 MODFLOW STRESS PERIOD      2     CURRENT TIME STEP:     238     ITERATIONS:      12

 -----------------------------------------------------------------------------------

   CUMULATIVE VOLUMES               L**3   RATES FOR THIS TIME STEP           L**3/T
   ------------------                      ------------------------

                                     IN                                         IN
                                     --                                         --
        PRECIPITATION =        1.8252D+07          PRECIPITATION =         284301.98
           STREAMFLOW =                               STREAMFLOW =                  
     GW BOUNDARY FLOW =                         GW BOUNDARY FLOW =                  


                                    OUT                                        OUT
                                    ---                                        ---
   EVAPOTRANSPIRATION =        1.2124D+07     EVAPOTRANSPIRATION =         143847.36
           STREAMFLOW =        6124012.95             STREAMFLOW =          18213.18
     GW BOUNDARY FLOW =         154891.05       GW BOUNDARY FLOW =            648.42

   INFLOWS - OUTFLOWS =        -150927.13     INFLOWS - OUTFLOWS =         121593.01
             --------                                   --------

 TOTAL STORAGE CHANGE =        -143820.95         STORAGE CHANGE =         121602.03
       --------------                             --------------
         LAND SURFACE =          96901.93           LAND SURFACE =          -7055.52
            SOIL ZONE =        1416529.73              SOIL ZONE =         146522.10
     UNSATURATED ZONE =        -865938.96       UNSATURATED ZONE =         -10988.93
       SATURATED ZONE =        -791313.65         SATURATED ZONE =          -6875.62

 OVERALL BUDGET ERROR =          -7106.19           BUDGET ERROR =             -9.02


  PERCENT DISCREPANCY =             -0.04    PERCENT DISCREPANCY =             -0.00



1
 SUMMARY VOLUMETRIC BUDGET FOR GSFLOW 
 DATE: 06 02 1981              CUMULATIVE TIME STEP:     245
 MODFLOW STRESS PERIOD      2     CURRENT TIME STEP:     245     ITERATIONS:      14

 -----------------------------------------------------------------------------------

   CUMULATIVE VOLUMES               L**3   RATES FOR THIS TIME STEP           L**3/T
   ------------------                      ------------------------

                                     IN                                         IN
                                     --                                         --
        PRECIPITATION =        1.8318D+07          PRECIPITATION =          50867.39
           STREAMFLOW =                               STREAMFLOW =                  
     GW BOUNDARY FLOW =                         GW BOUNDARY FLOW =                  


                                    OUT                                        OUT
                                    ---                                        ---
   EVAPOTRANSPIRATION =        1.2927D+07     EVAPOTRANSPIRATION =          64990.80
           STREAMFLOW =        6190251.93             STREAMFLOW =           7479.45
     GW BOUNDARY FLOW =         159425.69       GW BOUNDARY FLOW =            647.38

   INFLOWS - OUTFLOWS =        -958075.02     INFLOWS - OUTFLOWS =         -22250.24
             --------                                   --------

 TOTAL STORAGE CHANGE =        -950946.41         STORAGE CHANGE =         -22248.92
       --------------                             --------------
         LAND SURFACE =          61824.55           LAND SURFACE =          30829.61
            SOIL ZONE =         790770.82              SOIL ZONE =         -30853.97
     UNSATURATED ZONE =        -954453.06       UNSATURATED ZONE =         -13645.92
       SATURATED ZONE =        -849088.72         SATURATED ZONE =          -8578.64

 OVERALL BUDGET ERROR =          -7128.62           BUDGET ERROR =             -1.32


  PERCENT DISCREPANCY =             -0.04    PERCENT DISCREPANCY =             -0.00



1
 SUMMARY VOLUMETRIC BUDGET FOR GSFLOW 
 DATE: 06 09 1981              CUMULATIVE TIME STEP:     252
 MODFLOW STRESS PERIOD      2     CURRENT TIME STEP:     252     ITERATIONS:      13

 -----------------------------------------------------------------------------------

   CUMULATIVE VOLUMES               L**3   RATES FOR THIS TIME STEP           L**3/T
   ------------------                      ------------------------

                                     IN                                         IN
                                     --                                         --
        PRECIPITATION =        1.8318D+07          PRECIPITATION =                  
           STREAMFLOW =                               STREAMFLOW =                  
     GW BOUNDARY FLOW =                         GW BOUNDARY FLOW =                  


                                    OUT                                        OUT
                                    ---                                        ---
   EVAPOTRANSPIRATION =        1.3394D+07     EVAPOTRANSPIRATION =          48544.91
           STREAMFLOW =        6236949.58             STREAMFLOW =           6324.33
     GW BOUNDARY FLOW =         163955.35       GW BOUNDARY FLOW =            646.94

   INFLOWS - OUTFLOWS =       -1476991.98     INFLOWS - OUTFLOWS =         -55516.18
             --------                                   --------

 TOTAL STORAGE CHANGE =       -1469827.40         STORAGE CHANGE =         -55511.83
       --------------                             --------------
         LAND SURFACE =           8254.44           LAND SURFACE =          -1595.45
            SOIL ZONE =         480975.63              SOIL ZONE =         -31741.86
     UNSATURATED ZONE =       -1047596.21       UNSATURATED ZONE =         -13063.58
       SATURATED ZONE =        -911461.26         SATURATED ZONE =          -9110.94

 OVERALL BUDGET ERROR =          -7164.58           BUDGET ERROR =             -4.34


  PERCENT DISCREPANCY =             -0.04    PERCENT DISCREPANCY =             -0.01



1
 SUMMARY VOLUMETRIC BUDGET FOR GSFLOW 
 DATE: 06 16 1981              CUMULATIVE TIME STEP:     259
 MODFLOW STRESS PERIOD      2     CURRENT TIME STEP:     259     ITERATIONS:      12

 -----------------------------------------------------------------------------------

   CUMULATIVE VOLUMES               L**3   RATES FOR THIS TIME STEP           L**3/T
   ------------------                      ------------------------

                                     IN                                         IN
                                     --                                         --
        PRECIPITATION =        1.8318D+07          PRECIPITATION =                  
           STREAMFLOW =                               STREAMFLOW =                  
     GW BOUNDARY FLOW =                         GW BOUNDARY FLOW =                  


                                    OUT                                        OUT
                                    ---                                        ---
   EVAPOTRANSPIRATION =        1.3579D+07     EVAPOTRANSPIRATION =          43990.69
           STREAMFLOW =        6280194.63             STREAMFLOW =           6114.78
     GW BOUNDARY FLOW =         168483.03       GW BOUNDARY FLOW =            646.73

   INFLOWS - OUTFLOWS =       -1709029.82     INFLOWS - OUTFLOWS =         -50752.20
             --------                                   --------

 TOTAL STORAGE CHANGE =       -1701824.74         STORAGE CHANGE =         -50749.72
       --------------                             --------------
         LAND SURFACE =           3426.51           LAND SURFACE =           -943.67
            SOIL ZONE =         407713.49              SOIL ZONE =         -27945.33
     UNSATURATED ZONE =       -1136672.87       UNSATURATED ZONE =         -12436.16
       SATURATED ZONE =        -976291.86         SATURATED ZONE =          -9424.57

 OVERALL BUDGET ERROR =          -7205.08           BUDGET ERROR =             -2.48


  PERCENT DISCREPANCY =             -0.04    PERCENT DISCREPANCY =             -0.00



1
 SUMMARY VOLUMETRIC BUDGET FOR GSFLOW 
 DATE: 06 23 1981              CUMULATIVE TIME STEP:     266
 MODFLOW STRESS PERIOD      2     CURRENT TIME STEP:     266     ITERATIONS:      14

 -----------------------------------------------------------------------------------

   CUMULATIVE VOLUMES               L**3   RATES FOR THIS TIME STEP           L**3/T
   ------------------                      ------------------------

                                     IN                                         IN
                                     --                                         --
        PRECIPITATION =        1.8318D+07          PRECIPITATION =                  
           STREAMFLOW =                               STREAMFLOW =                  
     GW BOUNDARY FLOW =                         GW BOUNDARY FLOW =                  


                                    OUT                                        OUT
                                    ---                                        ---
   EVAPOTRANSPIRATION =        1.3857D+07     EVAPOTRANSPIRATION =          33005.51
           STREAMFLOW =        6322163.31             STREAMFLOW =           5933.57
     GW BOUNDARY FLOW =         173009.48       GW BOUNDARY FLOW =            646.56

   INFLOWS - OUTFLOWS =       -2033822.23     INFLOWS - OUTFLOWS =         -39585.65
             --------                                   --------

 TOTAL STORAGE CHANGE =       -2026597.06         STORAGE CHANGE =         -39584.88
       --------------                             --------------
         LAND SURFACE =                             LAND SURFACE =                  
            SOIL ZONE =         238232.29              SOIL ZONE =         -18006.55
     UNSATURATED ZONE =       -1221495.14       UNSATURATED ZONE =         -11731.41
       SATURATED ZONE =       -1043334.22         SATURATED ZONE =          -9846.92

 OVERALL BUDGET ERROR =          -7225.16           BUDGET ERROR =             -0.77


  PERCENT DISCREPANCY =             -0.04    PERCENT DISCREPANCY =             -0.00



1
 SUMMARY VOLUMETRIC BUDGET FOR GSFLOW 
 DATE: 06 30 1981              CUMULATIVE TIME STEP:     273
 MODFLOW STRESS PERIOD      2     CURRENT TIME STEP:     273     ITERATIONS:       9

 -----------------------------------------------------------------------------------

   CUMULATIVE VOLUMES               L**3   RATES FOR THIS TIME STEP           L**3/T
   ------------------                      ------------------------

                                     IN                                         IN
[...]
     GW BOUNDARY FLOW =        3735621.81       GW BOUNDARY FLOW =            650.70

   INFLOWS - OUTFLOWS =       -7932064.47     INFLOWS - OUTFLOWS =         -48720.69
             --------                                   --------

 TOTAL STORAGE CHANGE =       -7824789.93         STORAGE CHANGE =         -48741.37
       --------------                             --------------
         LAND SURFACE =          84521.90           LAND SURFACE =          -4963.73
            SOIL ZONE =         221356.90              SOIL ZONE =         -22483.64
     UNSATURATED ZONE =        5304137.85       UNSATURATED ZONE =         -27510.10
       SATURATED ZONE =       -1.3435D+07         SATURATED ZONE =           6216.12

 OVERALL BUDGET ERROR =        -107274.54           BUDGET ERROR =             20.67


  PERCENT DISCREPANCY =             -0.02    PERCENT DISCREPANCY =              0.04



1
 SUMMARY VOLUMETRIC BUDGET FOR GSFLOW 
 DATE: 07 30 1996              CUMULATIVE TIME STEP:    5782
 MODFLOW STRESS PERIOD      2     CURRENT TIME STEP:    5782     ITERATIONS:      14

 -----------------------------------------------------------------------------------

   CUMULATIVE VOLUMES               L**3   RATES FOR THIS TIME STEP           L**3/T
   ------------------                      ------------------------

                                     IN                                         IN
                                     --                                         --
        PRECIPITATION =        4.6511D+08          PRECIPITATION =                  
           STREAMFLOW =                               STREAMFLOW =                  
     GW BOUNDARY FLOW =                         GW BOUNDARY FLOW =                  


                                    OUT                                        OUT
                                    ---                                        ---
   EVAPOTRANSPIRATION =        2.8895D+08     EVAPOTRANSPIRATION =          25374.15
           STREAMFLOW =        1.8060D+08             STREAMFLOW =           6739.56
     GW BOUNDARY FLOW =        3740175.13       GW BOUNDARY FLOW =            650.28

   INFLOWS - OUTFLOWS =       -8188487.34     INFLOWS - OUTFLOWS =         -32763.99
             --------                                   --------

 TOTAL STORAGE CHANGE =       -8081289.47         STORAGE CHANGE =         -32781.94
       --------------                             --------------
         LAND SURFACE =          55427.09           LAND SURFACE =          -3488.58
            SOIL ZONE =         141566.38              SOIL ZONE =          -8333.05
     UNSATURATED ZONE =        5116619.16       UNSATURATED ZONE =         -26306.96
       SATURATED ZONE =       -1.3395D+07         SATURATED ZONE =           5346.65

 OVERALL BUDGET ERROR =        -107197.86           BUDGET ERROR =             17.95


  PERCENT DISCREPANCY =             -0.02    PERCENT DISCREPANCY =              0.05



1
 SUMMARY VOLUMETRIC BUDGET FOR GSFLOW 
 DATE: 08 06 1996              CUMULATIVE TIME STEP:    5789
 MODFLOW STRESS PERIOD      2     CURRENT TIME STEP:    5789     ITERATIONS:      13

 -----------------------------------------------------------------------------------

   CUMULATIVE VOLUMES               L**3   RATES FOR THIS TIME STEP           L**3/T
   ------------------                      ------------------------

                                     IN                                         IN
                                     --                                         --
        PRECIPITATION =        4.6511D+08          PRECIPITATION =                  
           STREAMFLOW =                               STREAMFLOW =                  
     GW BOUNDARY FLOW =                         GW BOUNDARY FLOW =                  


                                    OUT                                        OUT
                                    ---                                        ---
   EVAPOTRANSPIRATION =        2.8909D+08     EVAPOTRANSPIRATION =          18604.31
           STREAMFLOW =        1.8065D+08             STREAMFLOW =           6538.82
     GW BOUNDARY FLOW =        3744725.33       GW BOUNDARY FLOW =            649.91

   INFLOWS - OUTFLOWS =       -8375346.82     INFLOWS - OUTFLOWS =         -25793.05
             --------                                   --------

 TOTAL STORAGE CHANGE =       -8268273.10         STORAGE CHANGE =         -25814.05
       --------------                             --------------
         LAND SURFACE =          37080.11           LAND SURFACE =          -2254.04
            SOIL ZONE =         118459.52              SOIL ZONE =          -2891.23
     UNSATURATED ZONE =        4934992.80       UNSATURATED ZONE =         -25455.79
       SATURATED ZONE =       -1.3359D+07         SATURATED ZONE =           4787.01

 OVERALL BUDGET ERROR =        -107073.72           BUDGET ERROR =             21.00


  PERCENT DISCREPANCY =             -0.02    PERCENT DISCREPANCY =              0.08



1
 SUMMARY VOLUMETRIC BUDGET FOR GSFLOW 
 DATE: 08 13 1996              CUMULATIVE TIME STEP:    5796
 MODFLOW STRESS PERIOD      2     CURRENT TIME STEP:    5796     ITERATIONS:      14

 -----------------------------------------------------------------------------------

   CUMULATIVE VOLUMES               L**3   RATES FOR THIS TIME STEP           L**3/T
   ------------------                      ------------------------

                                     IN                                         IN
                                     --                                         --
        PRECIPITATION =        4.6531D+08          PRECIPITATION =          54456.73
           STREAMFLOW =                               STREAMFLOW =                  
     GW BOUNDARY FLOW =                         GW BOUNDARY FLOW =                  


                                    OUT                                        OUT
                                    ---                                        ---
   EVAPOTRANSPIRATION =        2.8926D+08     EVAPOTRANSPIRATION =          33539.44
           STREAMFLOW =        1.8070D+08             STREAMFLOW =           7738.21
     GW BOUNDARY FLOW =        3749274.61       GW BOUNDARY FLOW =            649.95

   INFLOWS - OUTFLOWS =       -8398969.19     INFLOWS - OUTFLOWS =          12529.13
             --------                                   --------

 TOTAL STORAGE CHANGE =       -8291986.85         STORAGE CHANGE =          12516.85
       --------------                             --------------
         LAND SURFACE =          53177.14           LAND SURFACE =          -2312.81
            SOIL ZONE =         221805.83              SOIL ZONE =          35090.83
     UNSATURATED ZONE =        4761620.81       UNSATURATED ZONE =         -24146.70
       SATURATED ZONE =       -1.3329D+07         SATURATED ZONE =           3885.53

 OVERALL BUDGET ERROR =        -106982.34           BUDGET ERROR =             12.28


  PERCENT DISCREPANCY =             -0.02    PERCENT DISCREPANCY =              0.02



1
 SUMMARY VOLUMETRIC BUDGET FOR GSFLOW 
 DATE: 08 20 1996              CUMULATIVE TIME STEP:    5803
 MODFLOW STRESS PERIOD      2     CURRENT TIME STEP:    5803     ITERATIONS:      13

 -----------------------------------------------------------------------------------

   CUMULATIVE VOLUMES               L**3   RATES FOR THIS TIME STEP           L**3/T
   ------------------                      ------------------------

                                     IN                                         IN
                                     --                                         --
        PRECIPITATION =        4.6531D+08          PRECIPITATION =                  
           STREAMFLOW =                               STREAMFLOW =                  
     GW BOUNDARY FLOW =                         GW BOUNDARY FLOW =                  


                                    OUT                                        OUT
                                    ---                                        ---
   EVAPOTRANSPIRATION =        2.8946D+08     EVAPOTRANSPIRATION =          16671.75
           STREAMFLOW =        1.8074D+08             STREAMFLOW =           6347.36
     GW BOUNDARY FLOW =        3753822.83       GW BOUNDARY FLOW =            649.60

   INFLOWS - OUTFLOWS =       -8647021.80     INFLOWS - OUTFLOWS =         -23668.70
             --------                                   --------

 TOTAL STORAGE CHANGE =       -8540159.91         STORAGE CHANGE =         -23696.29
       --------------                             --------------
         LAND SURFACE =           6933.74           LAND SURFACE =          -1297.55
            SOIL ZONE =         161641.66              SOIL ZONE =          -2240.63
     UNSATURATED ZONE =        4596971.55       UNSATURATED ZONE =         -23080.10
       SATURATED ZONE =       -1.3306D+07         SATURATED ZONE =           2921.99

 OVERALL BUDGET ERROR =        -106861.89           BUDGET ERROR =             27.59


  PERCENT DISCREPANCY =             -0.02    PERCENT DISCREPANCY =              0.12



1
 SUMMARY VOLUMETRIC BUDGET FOR GSFLOW 
 DATE: 08 27 1996              CUMULATIVE TIME STEP:    5810
 MODFLOW STRESS PERIOD      2     CURRENT TIME STEP:    5810     ITERATIONS:      13

 -----------------------------------------------------------------------------------

   CUMULATIVE VOLUMES               L**3   RATES FOR THIS TIME STEP           L**3/T
   ------------------                      ------------------------

                                     IN                                         IN
                                     --                                         --
        PRECIPITATION =        4.6531D+08          PRECIPITATION =                  
           STREAMFLOW =                               STREAMFLOW =                  
     GW BOUNDARY FLOW =                         GW BOUNDARY FLOW =                  


                                    OUT                                        OUT
                                    ---                                        ---
   EVAPOTRANSPIRATION =        2.8960D+08     EVAPOTRANSPIRATION =          15152.03
           STREAMFLOW =        1.8079D+08             STREAMFLOW =           6188.69
     GW BOUNDARY FLOW =        3758368.68       GW BOUNDARY FLOW =            649.26

   INFLOWS - OUTFLOWS =       -8831073.24     INFLOWS - OUTFLOWS =         -21989.98
             --------                                   --------

 TOTAL STORAGE CHANGE =       -8724309.12         STORAGE CHANGE =         -22005.18
       --------------                             --------------
         LAND SURFACE =           1244.67           LAND SURFACE =           -272.68
            SOIL ZONE =         123221.53              SOIL ZONE =          -1826.85
     UNSATURATED ZONE =        4440584.88       UNSATURATED ZONE =         -21992.10
       SATURATED ZONE =       -1.3289D+07         SATURATED ZONE =           2086.46

 OVERALL BUDGET ERROR =        -106764.12           BUDGET ERROR =             15.19


  PERCENT DISCREPANCY =             -0.02    PERCENT DISCREPANCY =              0.07



1
 SUMMARY VOLUMETRIC BUDGET FOR GSFLOW 
 DATE: 09 03 1996              CUMULATIVE TIME STEP:    5817
 MODFLOW STRESS PERIOD      2     CURRENT TIME STEP:    5817     ITERATIONS:      12

 -----------------------------------------------------------------------------------

   CUMULATIVE VOLUMES               L**3   RATES FOR THIS TIME STEP           L**3/T
   ------------------                      ------------------------

                                     IN                                         IN
                                     --                                         --
        PRECIPITATION =        4.6531D+08          PRECIPITATION =                  
           STREAMFLOW =                               STREAMFLOW =                  
     GW BOUNDARY FLOW =                         GW BOUNDARY FLOW =                  


                                    OUT                                        OUT
                                    ---                                        ---
   EVAPOTRANSPIRATION =        2.8970D+08     EVAPOTRANSPIRATION =          12343.36
           STREAMFLOW =        1.8083D+08             STREAMFLOW =           6088.72
     GW BOUNDARY FLOW =        3762912.02       GW BOUNDARY FLOW =            648.88

   INFLOWS - OUTFLOWS =       -8980117.12     INFLOWS - OUTFLOWS =         -19080.96
             --------                                   --------

 TOTAL STORAGE CHANGE =       -8873505.93         STORAGE CHANGE =         -19098.92
       --------------                             --------------
         LAND SURFACE =            584.39           LAND SURFACE =            -75.06
            SOIL ZONE =         113165.89              SOIL ZONE =            660.40
     UNSATURATED ZONE =        4290448.62       UNSATURATED ZONE =         -21143.65
       SATURATED ZONE =       -1.3278D+07         SATURATED ZONE =           1459.39

 OVERALL BUDGET ERROR =        -106611.19           BUDGET ERROR =             17.96


  PERCENT DISCREPANCY =             -0.02    PERCENT DISCREPANCY =              0.09



1
 SUMMARY VOLUMETRIC BUDGET FOR GSFLOW 
 DATE: 09 10 1996              CUMULATIVE TIME STEP:    5824
 MODFLOW STRESS PERIOD      2     CURRENT TIME STEP:    5824     ITERATIONS:      12

 -----------------------------------------------------------------------------------

   CUMULATIVE VOLUMES               L**3   RATES FOR THIS TIME STEP           L**3/T
   ------------------                      ------------------------

                                     IN                                         IN
                                     --                                         --
        PRECIPITATION =        4.6531D+08          PRECIPITATION =                  
           STREAMFLOW =                               STREAMFLOW =                  
     GW BOUNDARY FLOW =                         GW BOUNDARY FLOW =                  


                                    OUT                                        OUT
                                    ---                                        ---
   EVAPOTRANSPIRATION =        2.8978D+08     EVAPOTRANSPIRATION =          13669.49
           STREAMFLOW =        1.8087D+08             STREAMFLOW =           5997.28
     GW BOUNDARY FLOW =        3767452.75       GW BOUNDARY FLOW =            648.51

   INFLOWS - OUTFLOWS =       -9109632.09     INFLOWS - OUTFLOWS =         -20315.28
             --------                                   --------

 TOTAL STORAGE CHANGE =       -9003194.21         STORAGE CHANGE =         -20334.28
       --------------                             --------------
         LAND SURFACE =            141.93           LAND SURFACE =            -69.29
            SOIL ZONE =         120897.82              SOIL ZONE =           -794.03
     UNSATURATED ZONE =        4142880.16       UNSATURATED ZONE =         -20899.56
       SATURATED ZONE =       -1.3267D+07         SATURATED ZONE =           1428.60

 OVERALL BUDGET ERROR =        -106437.88           BUDGET ERROR =             19.00


  PERCENT DISCREPANCY =             -0.02    PERCENT DISCREPANCY =              0.09



1
 SUMMARY VOLUMETRIC BUDGET FOR GSFLOW 
 DATE: 09 17 1996              CUMULATIVE TIME STEP:    5831
 MODFLOW STRESS PERIOD      2     CURRENT TIME STEP:    5831     ITERATIONS:      11

 -----------------------------------------------------------------------------------

   CUMULATIVE VOLUMES               L**3   RATES FOR THIS TIME STEP           L**3/T
   ------------------                      ------------------------

                                     IN                                         IN
                                     --                                         --
        PRECIPITATION =        4.6637D+08          PRECIPITATION =                  
           STREAMFLOW =                               STREAMFLOW =                  
     GW BOUNDARY FLOW =                         GW BOUNDARY FLOW =                  


                                    OUT                                        OUT
                                    ---                                        ---
   EVAPOTRANSPIRATION =        2.8997D+08     EVAPOTRANSPIRATION =          63860.91
           STREAMFLOW =        1.8094D+08             STREAMFLOW =          10044.18
     GW BOUNDARY FLOW =        3771992.84       GW BOUNDARY FLOW =            648.92

   INFLOWS - OUTFLOWS =       -8311306.37     INFLOWS - OUTFLOWS =         -74554.01
             --------                                   --------

 TOTAL STORAGE CHANGE =       -8205062.02         STORAGE CHANGE =         -74589.01
       --------------                             --------------
         LAND SURFACE =           2829.02           LAND SURFACE =         -35615.32
            SOIL ZONE =        1049666.17              SOIL ZONE =         -19687.67
     UNSATURATED ZONE =        4000684.45       UNSATURATED ZONE =         -19901.13
       SATURATED ZONE =       -1.3258D+07         SATURATED ZONE =            615.10

 OVERALL BUDGET ERROR =        -106244.36           BUDGET ERROR =             35.00


  PERCENT DISCREPANCY =             -0.02    PERCENT DISCREPANCY =              0.05



1
 SUMMARY VOLUMETRIC BUDGET FOR GSFLOW 
 DATE: 09 24 1996              CUMULATIVE TIME STEP:    5838
 MODFLOW STRESS PERIOD      2     CURRENT TIME STEP:    5838     ITERATIONS:      12

 -----------------------------------------------------------------------------------

   CUMULATIVE VOLUMES               L**3   RATES FOR THIS TIME STEP           L**3/T
   ------------------                      ------------------------

                                     IN                                         IN
                                     --                                         --
        PRECIPITATION =        4.6637D+08          PRECIPITATION =                  
           STREAMFLOW =                               STREAMFLOW =                  
     GW BOUNDARY FLOW =                         GW BOUNDARY FLOW =                  


                                    OUT                                        OUT
                                    ---                                        ---
   EVAPOTRANSPIRATION =        2.9046D+08     EVAPOTRANSPIRATION =          56976.11
           STREAMFLOW =        1.8099D+08             STREAMFLOW =           6390.01
     GW BOUNDARY FLOW =        3776531.34       GW BOUNDARY FLOW =            648.02

   INFLOWS - OUTFLOWS =       -8862180.03     INFLOWS - OUTFLOWS =         -64014.14
             --------                                   --------

 TOTAL STORAGE CHANGE =       -8756156.20         STORAGE CHANGE =         -64029.60
       --------------                             --------------
         LAND SURFACE =                             LAND SURFACE =                  
            SOIL ZONE =         635748.62              SOIL ZONE =         -44938.38
     UNSATURATED ZONE =        3864935.36       UNSATURATED ZONE =         -19218.95
       SATURATED ZONE =       -1.3257D+07         SATURATED ZONE =            127.73

 OVERALL BUDGET ERROR =        -106023.84           BUDGET ERROR =             15.46


  PERCENT DISCREPANCY =             -0.02    PERCENT DISCREPANCY =              0.02



 Number of time steps:   5844;  Number of non-convergence:   0
 MF iterations:         63708;  SZ iterations:           63670
 Average MF iterations: 10.90;  Average SZ iterations:   10.89
 Maximum MF iterations:    32;  Maximum SZ iterations:      25

mxsziter reached: 13

