1
 SUMMARY VOLUMETRIC BUDGET FOR GSFLOW 
 DATE: 10 07 1980              CUMULATIVE TIME STEP:       7
 MODFLOW STRESS PERIOD      2     CURRENT TIME STEP:       7     ITERATIONS:       6

 -----------------------------------------------------------------------------------

   CUMULATIVE VOLUMES               L**3   RATES FOR THIS TIME STEP           L**3/T
   ------------------                      ------------------------

                                     IN                                         IN
                                     --                                         --
        PRECIPITATION =                            PRECIPITATION =                  
           STREAMFLOW =                               STREAMFLOW =                  
     GW BOUNDARY FLOW =                         GW BOUNDARY FLOW =                  


                                    OUT                                        OUT
                                    ---                                        ---
   EVAPOTRANSPIRATION =          71488.73     EVAPOTRANSPIRATION =          13218.84
           STREAMFLOW =          42957.63             STREAMFLOW =           6065.77
     GW BOUNDARY FLOW =           4541.44       GW BOUNDARY FLOW =            648.70

   INFLOWS - OUTFLOWS =        -118987.79     INFLOWS - OUTFLOWS =         -19933.31
             --------                                   --------

 TOTAL STORAGE CHANGE =        -118532.01         STORAGE CHANGE =         -19865.00
       --------------                             --------------
         LAND SURFACE =                             LAND SURFACE =                  
            SOIL ZONE =          39028.32              SOIL ZONE =           2477.58
     UNSATURATED ZONE =        -144777.37       UNSATURATED ZONE =         -20360.11
       SATURATED ZONE =         -12782.96         SATURATED ZONE =          -1982.46

 OVERALL BUDGET ERROR =           -455.79           BUDGET ERROR =            -68.32


  PERCENT DISCREPANCY =             -0.38    PERCENT DISCREPANCY =             -0.34



1
 SUMMARY VOLUMETRIC BUDGET FOR GSFLOW 
 DATE: 10 14 1980              CUMULATIVE TIME STEP:      14
 MODFLOW STRESS PERIOD      2     CURRENT TIME STEP:      14     ITERATIONS:       6

 -----------------------------------------------------------------------------------

   CUMULATIVE VOLUMES               L**3   RATES FOR THIS TIME STEP           L**3/T
   ------------------                      ------------------------

                                     IN                                         IN
                                     --                                         --
        PRECIPITATION =         650780.39          PRECIPITATION =         164754.68
           STREAMFLOW =                               STREAMFLOW =                  
     GW BOUNDARY FLOW =                         GW BOUNDARY FLOW =                  


                                    OUT                                        OUT
                                    ---                                        ---
   EVAPOTRANSPIRATION =         167095.29     EVAPOTRANSPIRATION =          10964.59
           STREAMFLOW =          92673.04             STREAMFLOW =           7491.51
     GW BOUNDARY FLOW =           9082.78       GW BOUNDARY FLOW =            648.89

   INFLOWS - OUTFLOWS =         381929.28     INFLOWS - OUTFLOWS =         145649.68
             --------                                   --------

 TOTAL STORAGE CHANGE =         382899.62         STORAGE CHANGE =         145723.54
       --------------                             --------------
         LAND SURFACE =         277680.20           LAND SURFACE =         136619.69
            SOIL ZONE =         417346.95              SOIL ZONE =          31122.15
     UNSATURATED ZONE =        -284452.30       UNSATURATED ZONE =         -19623.44
       SATURATED ZONE =         -27675.23         SATURATED ZONE =          -2394.86

 OVERALL BUDGET ERROR =           -970.34           BUDGET ERROR =            -73.85


  PERCENT DISCREPANCY =             -0.15    PERCENT DISCREPANCY =             -0.04



1
 SUMMARY VOLUMETRIC BUDGET FOR GSFLOW 
 DATE: 10 21 1980              CUMULATIVE TIME STEP:      21
 MODFLOW STRESS PERIOD      2     CURRENT TIME STEP:      21     ITERATIONS:       6

 -----------------------------------------------------------------------------------

   CUMULATIVE VOLUMES               L**3   RATES FOR THIS TIME STEP           L**3/T
   ------------------                      ------------------------

                                     IN                                         IN
                                     --                                         --
        PRECIPITATION =         733156.23          PRECIPITATION =                  
           STREAMFLOW =                               STREAMFLOW =                  
     GW BOUNDARY FLOW =                         GW BOUNDARY FLOW =                  


                                    OUT                                        OUT
                                    ---                                        ---
   EVAPOTRANSPIRATION =         431425.22     EVAPOTRANSPIRATION =          45185.73
           STREAMFLOW =         144402.09             STREAMFLOW =           6979.29
     GW BOUNDARY FLOW =          13624.50       GW BOUNDARY FLOW =            648.75

   INFLOWS - OUTFLOWS =         143704.42     INFLOWS - OUTFLOWS =         -52813.77
             --------                                   --------

 TOTAL STORAGE CHANGE =         145183.61         STORAGE CHANGE =         -52733.74
       --------------                             --------------
         LAND SURFACE =           2252.39           LAND SURFACE =          -3155.26
            SOIL ZONE =         607928.59              SOIL ZONE =         -27776.75
     UNSATURATED ZONE =        -418633.06       UNSATURATED ZONE =         -18806.92
       SATURATED ZONE =         -46364.30         SATURATED ZONE =          -2994.81

 OVERALL BUDGET ERROR =          -1479.20           BUDGET ERROR =            -80.03


  PERCENT DISCREPANCY =             -0.20    PERCENT DISCREPANCY =             -0.15



1
 SUMMARY VOLUMETRIC BUDGET FOR GSFLOW 
 DATE: 10 28 1980              CUMULATIVE TIME STEP:      28
 MODFLOW STRESS PERIOD      2     CURRENT TIME STEP:      28     ITERATIONS:       6

 -----------------------------------------------------------------------------------

   CUMULATIVE VOLUMES               L**3   RATES FOR THIS TIME STEP           L**3/T
   ------------------                      ------------------------

                                     IN                                         IN
                                     --                                         --
        PRECIPITATION =        1070899.96          PRECIPITATION =                  
           STREAMFLOW =                               STREAMFLOW =                  
     GW BOUNDARY FLOW =                         GW BOUNDARY FLOW =                  


                                    OUT                                        OUT
                                    ---                                        ---
   EVAPOTRANSPIRATION =         638010.92     EVAPOTRANSPIRATION =          23594.69
           STREAMFLOW =         198451.41             STREAMFLOW =           7838.33
     GW BOUNDARY FLOW =          18165.73       GW BOUNDARY FLOW =            648.79

   INFLOWS - OUTFLOWS =         216271.90     INFLOWS - OUTFLOWS =         -32081.81
             --------                                   --------

 TOTAL STORAGE CHANGE =         218324.22         STORAGE CHANGE =         -31997.10
       --------------                             --------------
         LAND SURFACE =          24622.16           LAND SURFACE =         -30947.62
            SOIL ZONE =         809920.28              SOIL ZONE =          20441.13
     UNSATURATED ZONE =        -547256.05       UNSATURATED ZONE =         -18000.90
       SATURATED ZONE =         -68962.17         SATURATED ZONE =          -3489.70

 OVERALL BUDGET ERROR =          -2052.31           BUDGET ERROR =            -84.70


  PERCENT DISCREPANCY =             -0.19    PERCENT DISCREPANCY =             -0.26



1
 SUMMARY VOLUMETRIC BUDGET FOR GSFLOW 
 DATE: 11 04 1980              CUMULATIVE TIME STEP:      35
 MODFLOW STRESS PERIOD      2     CURRENT TIME STEP:      35     ITERATIONS:       8

 -----------------------------------------------------------------------------------

   CUMULATIVE VOLUMES               L**3   RATES FOR THIS TIME STEP           L**3/T
   ------------------                      ------------------------

                                     IN                                         IN
                                     --                                         --
        PRECIPITATION =        1070899.96          PRECIPITATION =                  
           STREAMFLOW =                               STREAMFLOW =                  
     GW BOUNDARY FLOW =                         GW BOUNDARY FLOW =                  


                                    OUT                                        OUT
                                    ---                                        ---
   EVAPOTRANSPIRATION =        1008968.13     EVAPOTRANSPIRATION =          51906.71
           STREAMFLOW =         249741.27             STREAMFLOW =           6882.61
     GW BOUNDARY FLOW =          22706.55       GW BOUNDARY FLOW =            648.62

   INFLOWS - OUTFLOWS =        -210515.99     INFLOWS - OUTFLOWS =         -59437.93
             --------                                   --------

 TOTAL STORAGE CHANGE =        -207914.62         STORAGE CHANGE =         -59376.83
       --------------                             --------------
         LAND SURFACE =                             LAND SURFACE =                  
            SOIL ZONE =         558994.69              SOIL ZONE =         -37835.46
     UNSATURATED ZONE =        -670703.69       UNSATURATED ZONE =         -17358.48
       SATURATED ZONE =         -96205.63         SATURATED ZONE =          -4182.89

 OVERALL BUDGET ERROR =          -2601.37           BUDGET ERROR =            -61.11


  PERCENT DISCREPANCY =             -0.20    PERCENT DISCREPANCY =             -0.10



1
 SUMMARY VOLUMETRIC BUDGET FOR GSFLOW 
 DATE: 11 11 1980              CUMULATIVE TIME STEP:      42
 MODFLOW STRESS PERIOD      2     CURRENT TIME STEP:      42     ITERATIONS:       7

 -----------------------------------------------------------------------------------

   CUMULATIVE VOLUMES               L**3   RATES FOR THIS TIME STEP           L**3/T
   ------------------                      ------------------------

                                     IN                                         IN
                                     --                                         --
        PRECIPITATION =        1573759.34          PRECIPITATION =         255182.10
           STREAMFLOW =                               STREAMFLOW =                  
     GW BOUNDARY FLOW =                         GW BOUNDARY FLOW =                  


                                    OUT                                        OUT
                                    ---                                        ---
   EVAPOTRANSPIRATION =        1265061.95     EVAPOTRANSPIRATION =          17534.64
           STREAMFLOW =         304671.45             STREAMFLOW =          10503.99
     GW BOUNDARY FLOW =          27247.12       GW BOUNDARY FLOW =            648.82

   INFLOWS - OUTFLOWS =         -23221.19     INFLOWS - OUTFLOWS =         226494.65
             --------                                   --------

 TOTAL STORAGE CHANGE =         -20033.78         STORAGE CHANGE =         226556.84
       --------------                             --------------
         LAND SURFACE =          78611.70           LAND SURFACE =          76658.21
            SOIL ZONE =         816852.06              SOIL ZONE =         170556.68
     UNSATURATED ZONE =        -789302.47       UNSATURATED ZONE =         -16532.86
       SATURATED ZONE =        -126195.07         SATURATED ZONE =          -4125.20

 OVERALL BUDGET ERROR =          -3187.41           BUDGET ERROR =            -62.19


  PERCENT DISCREPANCY =             -0.20    PERCENT DISCREPANCY =             -0.02



1
 SUMMARY VOLUMETRIC BUDGET FOR GSFLOW 
 DATE: 11 18 1980              CUMULATIVE TIME STEP:      49
 MODFLOW STRESS PERIOD      2     CURRENT TIME STEP:      49     ITERATIONS:       6

 -----------------------------------------------------------------------------------

   CUMULATIVE VOLUMES               L**3   RATES FOR THIS TIME STEP           L**3/T
   ------------------                      ------------------------

                                     IN                                         IN
                                     --                                         --
        PRECIPITATION =        1573759.34          PRECIPITATION =                  
           STREAMFLOW =                               STREAMFLOW =                  
     GW BOUNDARY FLOW =                         GW BOUNDARY FLOW =                  


                                    OUT                                        OUT
                                    ---                                        ---
   EVAPOTRANSPIRATION =        1356210.55     EVAPOTRANSPIRATION =          18666.46
           STREAMFLOW =         364645.03             STREAMFLOW =           8822.03
     GW BOUNDARY FLOW =          31788.65       GW BOUNDARY FLOW =            648.80

   INFLOWS - OUTFLOWS =        -178884.90     INFLOWS - OUTFLOWS =         -28137.29
             --------                                   --------

 TOTAL STORAGE CHANGE =        -175070.02         STORAGE CHANGE =         -28037.86
       --------------                             --------------
         LAND SURFACE =           8650.47           LAND SURFACE =          -6201.94
            SOIL ZONE =         878590.03              SOIL ZONE =           -990.76
     UNSATURATED ZONE =        -903203.21       UNSATURATED ZONE =         -16029.89
       SATURATED ZONE =        -159107.31         SATURATED ZONE =          -4815.26

 OVERALL BUDGET ERROR =          -3814.88           BUDGET ERROR =            -99.44


  PERCENT DISCREPANCY =             -0.22    PERCENT DISCREPANCY =             -0.35



1
 SUMMARY VOLUMETRIC BUDGET FOR GSFLOW 
 DATE: 11 25 1980              CUMULATIVE TIME STEP:      56
 MODFLOW STRESS PERIOD      2     CURRENT TIME STEP:      56     ITERATIONS:       7

 -----------------------------------------------------------------------------------

   CUMULATIVE VOLUMES               L**3   RATES FOR THIS TIME STEP           L**3/T
   ------------------                      ------------------------

                                     IN                                         IN
                                     --                                         --
        PRECIPITATION =        1648813.76          PRECIPITATION =                  
           STREAMFLOW =                               STREAMFLOW =                  
     GW BOUNDARY FLOW =                         GW BOUNDARY FLOW =                  


                                    OUT                                        OUT
                                    ---                                        ---
   EVAPOTRANSPIRATION =        1438995.34     EVAPOTRANSPIRATION =           8795.87
           STREAMFLOW =         426949.04             STREAMFLOW =           9024.67
     GW BOUNDARY FLOW =          36330.31       GW BOUNDARY FLOW =            648.82

   INFLOWS - OUTFLOWS =        -253460.93     INFLOWS - OUTFLOWS =         -18469.36
             --------                                   --------

 TOTAL STORAGE CHANGE =        -248966.83         STORAGE CHANGE =         -18392.78
       --------------                             --------------
         LAND SURFACE =          55166.56           LAND SURFACE =          -8744.72
            SOIL ZONE =         904004.53              SOIL ZONE =          11172.73
     UNSATURATED ZONE =       -1012877.74       UNSATURATED ZONE =         -15402.20
       SATURATED ZONE =        -195260.18         SATURATED ZONE =          -5418.59

 OVERALL BUDGET ERROR =          -4494.10           BUDGET ERROR =            -76.57


  PERCENT DISCREPANCY =             -0.24    PERCENT DISCREPANCY =             -0.42



1
 SUMMARY VOLUMETRIC BUDGET FOR GSFLOW 
 DATE: 12 02 1980              CUMULATIVE TIME STEP:      63
 MODFLOW STRESS PERIOD      2     CURRENT TIME STEP:      63     ITERATIONS:       9

 -----------------------------------------------------------------------------------

   CUMULATIVE VOLUMES               L**3   RATES FOR THIS TIME STEP           L**3/T
   ------------------                      ------------------------

                                     IN                                         IN
                                     --                                         --
        PRECIPITATION =        2076620.74          PRECIPITATION =                  
           STREAMFLOW =                               STREAMFLOW =                  
     GW BOUNDARY FLOW =                         GW BOUNDARY FLOW =                  


                                    OUT                                        OUT
                                    ---                                        ---
   EVAPOTRANSPIRATION =        1641918.12     EVAPOTRANSPIRATION =          35036.40
           STREAMFLOW =         499083.26             STREAMFLOW =          12051.38
     GW BOUNDARY FLOW =          40872.85       GW BOUNDARY FLOW =            649.13

   INFLOWS - OUTFLOWS =        -105253.50     INFLOWS - OUTFLOWS =         -47736.91
             --------                                   --------

 TOTAL STORAGE CHANGE =        -100271.16         STORAGE CHANGE =         -47688.20
       --------------                             --------------
         LAND SURFACE =         152558.40           LAND SURFACE =         -75202.38
            SOIL ZONE =        1097480.40              SOIL ZONE =          46891.01
     UNSATURATED ZONE =       -1116666.49       UNSATURATED ZONE =         -14054.05
       SATURATED ZONE =        -233643.48         SATURATED ZONE =          -5322.78

 OVERALL BUDGET ERROR =          -4982.34           BUDGET ERROR =            -48.71


  PERCENT DISCREPANCY =             -0.23    PERCENT DISCREPANCY =             -0.10



1
 SUMMARY VOLUMETRIC BUDGET FOR GSFLOW 
 DATE: 12 09 1980              CUMULATIVE TIME STEP:      70
 MODFLOW STRESS PERIOD      2     CURRENT TIME STEP:      70     ITERATIONS:       7

 -----------------------------------------------------------------------------------

   CUMULATIVE VOLUMES               L**3   RATES FOR THIS TIME STEP           L**3/T
   ------------------                      ------------------------

                                     IN                                         IN
                                     --                                         --
        PRECIPITATION =        4284363.13          PRECIPITATION =                  
           STREAMFLOW =                               STREAMFLOW =                  
     GW BOUNDARY FLOW =                         GW BOUNDARY FLOW =                  


                                    OUT                                        OUT
                                    ---                                        ---
   EVAPOTRANSPIRATION =        1665336.76     EVAPOTRANSPIRATION =           2942.37
           STREAMFLOW =         577129.17             STREAMFLOW =          11432.60
     GW BOUNDARY FLOW =          45417.06       GW BOUNDARY FLOW =            649.25

   INFLOWS - OUTFLOWS =        1996480.12     INFLOWS - OUTFLOWS =         -15024.22
             --------                                   --------

 TOTAL STORAGE CHANGE =        2001988.48         STORAGE CHANGE =         -14952.02
       --------------                             --------------
         LAND SURFACE =        2335225.13           LAND SURFACE =          -2942.37
            SOIL ZONE =        1157996.70              SOIL ZONE =           8225.14
     UNSATURATED ZONE =       -1216858.43       UNSATURATED ZONE =         -14231.03
       SATURATED ZONE =        -274374.92         SATURATED ZONE =          -6003.75

 OVERALL BUDGET ERROR =          -5508.35           BUDGET ERROR =            -72.20


  PERCENT DISCREPANCY =             -0.13    PERCENT DISCREPANCY =             -0.48



1
 SUMMARY VOLUMETRIC BUDGET FOR GSFLOW 
 DATE: 12 16 1980              CUMULATIVE TIME STEP:      77
 MODFLOW STRESS PERIOD      2     CURRENT TIME STEP:      77     ITERATIONS:       7

 -----------------------------------------------------------------------------------

   CUMULATIVE VOLUMES               L**3   RATES FOR THIS TIME STEP           L**3/T
   ------------------                      ------------------------

                                     IN                                         IN
                                     --                                         --
        PRECIPITATION =        4284363.13          PRECIPITATION =                  
           STREAMFLOW =                               STREAMFLOW =                  
     GW BOUNDARY FLOW =                         GW BOUNDARY FLOW =                  


                                    OUT                                        OUT
                                    ---                                        ---
   EVAPOTRANSPIRATION =        1807336.38     EVAPOTRANSPIRATION =          33888.91
           STREAMFLOW =         670671.08             STREAMFLOW =          18741.65
     GW BOUNDARY FLOW =          49962.67       GW BOUNDARY FLOW =            649.70

   INFLOWS - OUTFLOWS =        1756393.00     INFLOWS - OUTFLOWS =         -53280.26
             --------                                   --------

 TOTAL STORAGE CHANGE =        1762412.94         STORAGE CHANGE =         -53205.34
       --------------                             --------------
         LAND SURFACE =        2023963.99           LAND SURFACE =        -129017.63
            SOIL ZONE =        1365254.29              SOIL ZONE =          92152.71
     UNSATURATED ZONE =       -1310556.06       UNSATURATED ZONE =         -11099.43
       SATURATED ZONE =        -316249.28         SATURATED ZONE =          -5241.00

 OVERALL BUDGET ERROR =          -6019.94           BUDGET ERROR =            -74.92


  PERCENT DISCREPANCY =             -0.14    PERCENT DISCREPANCY =             -0.14



1
 SUMMARY VOLUMETRIC BUDGET FOR GSFLOW 
 DATE: 12 23 1980              CUMULATIVE TIME STEP:      84
 MODFLOW STRESS PERIOD      2     CURRENT TIME STEP:      84     ITERATIONS:       7

 -----------------------------------------------------------------------------------

   CUMULATIVE VOLUMES               L**3   RATES FOR THIS TIME STEP           L**3/T
   ------------------                      ------------------------

                                     IN                                         IN
                                     --                                         --
        PRECIPITATION =        4516755.31          PRECIPITATION =                  
           STREAMFLOW =                               STREAMFLOW =                  
     GW BOUNDARY FLOW =                         GW BOUNDARY FLOW =                  


                                    OUT                                        OUT
                                    ---                                        ---
   EVAPOTRANSPIRATION =        2013388.76     EVAPOTRANSPIRATION =          35140.80
           STREAMFLOW =         859746.12             STREAMFLOW =          26937.30
     GW BOUNDARY FLOW =          54519.14       GW BOUNDARY FLOW =            651.49

   INFLOWS - OUTFLOWS =        1589101.30     INFLOWS - OUTFLOWS =         -62729.59
             --------                                   --------

 TOTAL STORAGE CHANGE =        1595564.43         STORAGE CHANGE =         -62665.18
       --------------                             --------------
         LAND SURFACE =        1433308.52           LAND SURFACE =         -48192.94
            SOIL ZONE =        1874624.70              SOIL ZONE =          -2648.98
     UNSATURATED ZONE =       -1364530.25       UNSATURATED ZONE =          -7061.62
       SATURATED ZONE =        -347838.53         SATURATED ZONE =          -4761.64

 OVERALL BUDGET ERROR =          -6463.13           BUDGET ERROR =            -64.41


  PERCENT DISCREPANCY =             -0.14    PERCENT DISCREPANCY =             -0.10



1
 SUMMARY VOLUMETRIC BUDGET FOR GSFLOW 
 DATE: 12 30 1980              CUMULATIVE TIME STEP:      91
 MODFLOW STRESS PERIOD      2     CURRENT TIME STEP:      91     ITERATIONS:       9

 -----------------------------------------------------------------------------------

   CUMULATIVE VOLUMES               L**3   RATES FOR THIS TIME STEP           L**3/T
   ------------------                      ------------------------

                                     IN                                         IN
                                     --                                         --
        PRECIPITATION =        4516755.31          PRECIPITATION =                  
           STREAMFLOW =                               STREAMFLOW =                  
     GW BOUNDARY FLOW =                         GW BOUNDARY FLOW =                  


                                    OUT                                        OUT
                                    ---                                        ---
   EVAPOTRANSPIRATION =        2374015.12     EVAPOTRANSPIRATION =          45887.39
           STREAMFLOW =        1084558.35             STREAMFLOW =          25448.85
     GW BOUNDARY FLOW =          59083.53       GW BOUNDARY FLOW =            652.10

   INFLOWS - OUTFLOWS =         999098.32     INFLOWS - OUTFLOWS =         -71988.33
             --------                                   --------

 TOTAL STORAGE CHANGE =        1005784.82         STORAGE CHANGE =         -71960.45
       --------------                             --------------
         LAND SURFACE =         641176.37           LAND SURFACE =         -40371.69
            SOIL ZONE =        2138683.64              SOIL ZONE =         -19898.15
     UNSATURATED ZONE =       -1396209.30       UNSATURATED ZONE =          -6465.51
       SATURATED ZONE =        -377865.89         SATURATED ZONE =          -5225.10

 OVERALL BUDGET ERROR =          -6686.50           BUDGET ERROR =            -27.88


  PERCENT DISCREPANCY =             -0.15    PERCENT DISCREPANCY =             -0.04



1
 SUMMARY VOLUMETRIC BUDGET FOR GSFLOW 
 DATE: 01 06 1981              CUMULATIVE TIME STEP:      98
 MODFLOW STRESS PERIOD      2     CURRENT TIME STEP:      98     ITERATIONS:       8

 -----------------------------------------------------------------------------------

   CUMULATIVE VOLUMES               L**3   RATES FOR THIS TIME STEP           L**3/T
   ------------------                      ------------------------

                                     IN                                         IN
                                     --                                         --
        PRECIPITATION =        5004445.82          PRECIPITATION =                  
           STREAMFLOW =                               STREAMFLOW =                  
     GW BOUNDARY FLOW =                         GW BOUNDARY FLOW =                  


                                    OUT                                        OUT
                                    ---                                        ---
   EVAPOTRANSPIRATION =        2601937.25     EVAPOTRANSPIRATION =          21388.47
           STREAMFLOW =        1231836.60             STREAMFLOW =          20500.94
     GW BOUNDARY FLOW =          63643.94       GW BOUNDARY FLOW =            651.13

   INFLOWS - OUTFLOWS =        1107028.02     INFLOWS - OUTFLOWS =         -42540.53
             --------                                   --------

 TOTAL STORAGE CHANGE =        1113956.25         STORAGE CHANGE =         -42487.72
       --------------                             --------------
         LAND SURFACE =         837061.68           LAND SURFACE =         -30417.13
            SOIL ZONE =        2160065.16              SOIL ZONE =           3910.50
     UNSATURATED ZONE =       -1463624.39       UNSATURATED ZONE =          -9833.36
       SATURATED ZONE =        -419546.20         SATURATED ZONE =          -6147.73

 OVERALL BUDGET ERROR =          -6928.23           BUDGET ERROR =            -52.82


  PERCENT DISCREPANCY =             -0.14    PERCENT DISCREPANCY =             -0.12



1
 SUMMARY VOLUMETRIC BUDGET FOR GSFLOW 
 DATE: 01 13 1981              CUMULATIVE TIME STEP:     105
 MODFLOW STRESS PERIOD      2     CURRENT TIME STEP:     105     ITERATIONS:       8

 -----------------------------------------------------------------------------------

   CUMULATIVE VOLUMES               L**3   RATES FOR THIS TIME STEP           L**3/T
   ------------------                      ------------------------

                                     IN                                         IN
                                     --                                         --
        PRECIPITATION =        5004445.82          PRECIPITATION =                  
           STREAMFLOW =                               STREAMFLOW =                  
     GW BOUNDARY FLOW =                         GW BOUNDARY FLOW =                  


                                    OUT                                        OUT
                                    ---                                        ---
   EVAPOTRANSPIRATION =        2819454.35     EVAPOTRANSPIRATION =          44455.52
           STREAMFLOW =        1375857.44             STREAMFLOW =          19574.59
     GW BOUNDARY FLOW =          68200.35       GW BOUNDARY FLOW =            650.74

   INFLOWS - OUTFLOWS =         740933.68     INFLOWS - OUTFLOWS =         -64680.85
             --------                                   --------

 TOTAL STORAGE CHANGE =         748381.51         STORAGE CHANGE =         -64627.91
       --------------                             --------------
         LAND SURFACE =         626703.68           LAND SURFACE =         -38989.03
            SOIL ZONE =        2113716.06              SOIL ZONE =          -9941.97
     UNSATURATED ZONE =       -1527537.44       UNSATURATED ZONE =          -8929.67
       SATURATED ZONE =        -464500.79         SATURATED ZONE =          -6767.24

 OVERALL BUDGET ERROR =          -7447.82           BUDGET ERROR =            -52.94


  PERCENT DISCREPANCY =             -0.15    PERCENT DISCREPANCY =             -0.08



1
 SUMMARY VOLUMETRIC BUDGET FOR GSFLOW 
 DATE: 01 20 1981              CUMULATIVE TIME STEP:     112
 MODFLOW STRESS PERIOD      2     CURRENT TIME STEP:     112     ITERATIONS:       8

 -----------------------------------------------------------------------------------

   CUMULATIVE VOLUMES               L**3   RATES FOR THIS TIME STEP           L**3/T
   ------------------                      ------------------------

                                     IN                                         IN
                                     --                                         --
        PRECIPITATION =        5170468.48          PRECIPITATION =          41503.16
           STREAMFLOW =                               STREAMFLOW =                  
     GW BOUNDARY FLOW =                         GW BOUNDARY FLOW =                  


                                    OUT                                        OUT
                                    ---                                        ---
   EVAPOTRANSPIRATION =        3102864.66     EVAPOTRANSPIRATION =          36342.22
           STREAMFLOW =        1515173.23             STREAMFLOW =          19653.10
     GW BOUNDARY FLOW =          72754.68       GW BOUNDARY FLOW =            650.57

   INFLOWS - OUTFLOWS =         479675.91     INFLOWS - OUTFLOWS =         -15142.73
             --------                                   --------

 TOTAL STORAGE CHANGE =         487526.85         STORAGE CHANGE =         -15094.50
       --------------                             --------------
         LAND SURFACE =         436309.37           LAND SURFACE =           4324.83
            SOIL ZONE =        2126218.23              SOIL ZONE =         -10219.39
     UNSATURATED ZONE =       -1563187.24       UNSATURATED ZONE =          -2288.75
       SATURATED ZONE =        -511813.51         SATURATED ZONE =          -6911.19

 OVERALL BUDGET ERROR =          -7850.93           BUDGET ERROR =            -48.23


  PERCENT DISCREPANCY =             -0.15    PERCENT DISCREPANCY =             -0.09



1
 SUMMARY VOLUMETRIC BUDGET FOR GSFLOW 
 DATE: 01 27 1981              CUMULATIVE TIME STEP:     119
 MODFLOW STRESS PERIOD      2     CURRENT TIME STEP:     119     ITERATIONS:       9

 -----------------------------------------------------------------------------------

   CUMULATIVE VOLUMES               L**3   RATES FOR THIS TIME STEP           L**3/T
   ------------------                      ------------------------

                                     IN                                         IN
                                     --                                         --
        PRECIPITATION =        8646542.90          PRECIPITATION =        2936504.96
           STREAMFLOW =                               STREAMFLOW =                  
     GW BOUNDARY FLOW =                         GW BOUNDARY FLOW =                  


                                    OUT                                        OUT
                                    ---                                        ---
   EVAPOTRANSPIRATION =        3340511.87     EVAPOTRANSPIRATION =          13121.10
           STREAMFLOW =        1656908.53             STREAMFLOW =          18352.76
     GW BOUNDARY FLOW =          77308.45       GW BOUNDARY FLOW =            650.38

   INFLOWS - OUTFLOWS =        3571814.04     INFLOWS - OUTFLOWS =        2904380.73
             --------                                   --------

 TOTAL STORAGE CHANGE =        3579808.30         STORAGE CHANGE =        2904406.47
       --------------                             --------------
         LAND SURFACE =        3540208.69           LAND SURFACE =        2923350.57
            SOIL ZONE =        2149157.89              SOIL ZONE =          -7266.95
     UNSATURATED ZONE =       -1552116.93       UNSATURATED ZONE =          -4685.02
       SATURATED ZONE =        -557441.35         SATURATED ZONE =          -6992.13

 OVERALL BUDGET ERROR =          -7994.26           BUDGET ERROR =            -25.74


  PERCENT DISCREPANCY =             -0.09    PERCENT DISCREPANCY =             -0.00



1
 SUMMARY VOLUMETRIC BUDGET FOR GSFLOW 
 DATE: 02 03 1981              CUMULATIVE TIME STEP:     126
 MODFLOW STRESS PERIOD      2     CURRENT TIME STEP:     126     ITERATIONS:      10

 -----------------------------------------------------------------------------------

   CUMULATIVE VOLUMES               L**3   RATES FOR THIS TIME STEP           L**3/T
   ------------------                      ------------------------

                                     IN                                         IN
                                     --                                         --
        PRECIPITATION =        1.1739D+07          PRECIPITATION =                  
           STREAMFLOW =                               STREAMFLOW =                  
     GW BOUNDARY FLOW =                         GW BOUNDARY FLOW =                  


                                    OUT                                        OUT
                                    ---                                        ---
   EVAPOTRANSPIRATION =        3377024.76     EVAPOTRANSPIRATION =           6975.55
           STREAMFLOW =        1781677.96             STREAMFLOW =          17747.69
     GW BOUNDARY FLOW =          81860.17       GW BOUNDARY FLOW =            650.20

   INFLOWS - OUTFLOWS =        6498134.89     INFLOWS - OUTFLOWS =         -25373.45
             --------                                   --------

 TOTAL STORAGE CHANGE =        6506401.31         STORAGE CHANGE =         -25352.15
       --------------                             --------------
         LAND SURFACE =        6595850.65           LAND SURFACE =          -6975.55
            SOIL ZONE =        2139065.00              SOIL ZONE =            516.20
     UNSATURATED ZONE =       -1617929.07       UNSATURATED ZONE =         -11051.37
       SATURATED ZONE =        -610585.27         SATURATED ZONE =          -7841.42

 OVERALL BUDGET ERROR =          -8266.42           BUDGET ERROR =            -21.30


  PERCENT DISCREPANCY =             -0.07    PERCENT DISCREPANCY =             -0.08



1
 SUMMARY VOLUMETRIC BUDGET FOR GSFLOW 
 DATE: 02 10 1981              CUMULATIVE TIME STEP:     133
 MODFLOW STRESS PERIOD      2     CURRENT TIME STEP:     133     ITERATIONS:       7

 -----------------------------------------------------------------------------------

   CUMULATIVE VOLUMES               L**3   RATES FOR THIS TIME STEP           L**3/T
   ------------------                      ------------------------

                                     IN                                         IN
                                     --                                         --
        PRECIPITATION =        1.1838D+07          PRECIPITATION =                  
           STREAMFLOW =                               STREAMFLOW =                  
     GW BOUNDARY FLOW =                         GW BOUNDARY FLOW =                  


                                    OUT                                        OUT
                                    ---                                        ---
   EVAPOTRANSPIRATION =        3502426.00     EVAPOTRANSPIRATION =          32880.24
           STREAMFLOW =        1906389.32             STREAMFLOW =          17862.16
     GW BOUNDARY FLOW =          86411.65       GW BOUNDARY FLOW =            650.21

   INFLOWS - OUTFLOWS =        6343036.26     INFLOWS - OUTFLOWS =         -51392.60
             --------                                   --------

 TOTAL STORAGE CHANGE =        6351551.98         STORAGE CHANGE =         -51325.31
       --------------                             --------------
         LAND SURFACE =        6570014.87           LAND SURFACE =         -32880.24
            SOIL ZONE =        2143562.37              SOIL ZONE =            594.20
     UNSATURATED ZONE =       -1694415.99       UNSATURATED ZONE =         -10667.83
       SATURATED ZONE =        -667609.27         SATURATED ZONE =          -8371.44

 OVERALL BUDGET ERROR =          -8515.72           BUDGET ERROR =            -67.29


  PERCENT DISCREPANCY =             -0.07    PERCENT DISCREPANCY =             -0.13



1
 SUMMARY VOLUMETRIC BUDGET FOR GSFLOW 
 DATE: 02 17 1981              CUMULATIVE TIME STEP:     140
 MODFLOW STRESS PERIOD      2     CURRENT TIME STEP:     140     ITERATIONS:      14

 -----------------------------------------------------------------------------------

   CUMULATIVE VOLUMES               L**3   RATES FOR THIS TIME STEP           L**3/T
   ------------------                      ------------------------

                                     IN                                         IN
                                     --                                         --
        PRECIPITATION =        1.2765D+07          PRECIPITATION =          68928.68
           STREAMFLOW =                               STREAMFLOW =                  
     GW BOUNDARY FLOW =                         GW BOUNDARY FLOW =                  


                                    OUT                                        OUT
                                    ---                                        ---
   EVAPOTRANSPIRATION =        3840515.56     EVAPOTRANSPIRATION =          68604.82
           STREAMFLOW =        2438770.54             STREAMFLOW =         122989.09
     GW BOUNDARY FLOW =          90984.94       GW BOUNDARY FLOW =            656.72

   INFLOWS - OUTFLOWS =        6394709.63     INFLOWS - OUTFLOWS =        -123321.96
             --------                                   --------

 TOTAL STORAGE CHANGE =        6403512.19         STORAGE CHANGE =        -123307.64
       --------------                             --------------
         LAND SURFACE =        5590136.74           LAND SURFACE =        -278668.69
            SOIL ZONE =        2952520.27              SOIL ZONE =          75713.09
     UNSATURATED ZONE =       -1454504.40       UNSATURATED ZONE =          77238.50
       SATURATED ZONE =        -684640.43         SATURATED ZONE =           2409.47

 OVERALL BUDGET ERROR =          -8802.56           BUDGET ERROR =            -14.32


  PERCENT DISCREPANCY =             -0.07    PERCENT DISCREPANCY =             -0.01



1
 SUMMARY VOLUMETRIC BUDGET FOR GSFLOW 
 DATE: 02 24 1981              CUMULATIVE TIME STEP:     147
 MODFLOW STRESS PERIOD      2     CURRENT TIME STEP:     147     ITERATIONS:      13

 -----------------------------------------------------------------------------------

   CUMULATIVE VOLUMES               L**3   RATES FOR THIS TIME STEP           L**3/T
   ------------------                      ------------------------

                                     IN                                         IN
                                     --                                         --
        PRECIPITATION =        1.3179D+07          PRECIPITATION =         344647.71
           STREAMFLOW =                               STREAMFLOW =                  
     GW BOUNDARY FLOW =                         GW BOUNDARY FLOW =                  


                                    OUT                                        OUT
                                    ---                                        ---
   EVAPOTRANSPIRATION =        4181837.83     EVAPOTRANSPIRATION =          18832.86
           STREAMFLOW =        2991009.78             STREAMFLOW =          51612.18
     GW BOUNDARY FLOW =          95577.49       GW BOUNDARY FLOW =            655.08

   INFLOWS - OUTFLOWS =        5910133.35     INFLOWS - OUTFLOWS =         273547.58
             --------                                   --------

 TOTAL STORAGE CHANGE =        5918881.90         STORAGE CHANGE =         273538.46
       --------------                             --------------
         LAND SURFACE =        4984331.51           LAND SURFACE =         286391.25
            SOIL ZONE =        2694845.63              SOIL ZONE =         -43585.81
     UNSATURATED ZONE =       -1097789.61       UNSATURATED ZONE =          28447.24
       SATURATED ZONE =        -662505.62         SATURATED ZONE =           2285.79

 OVERALL BUDGET ERROR =          -8748.55           BUDGET ERROR =              9.12


  PERCENT DISCREPANCY =             -0.07    PERCENT DISCREPANCY =              0.00



1
 SUMMARY VOLUMETRIC BUDGET FOR GSFLOW 
 DATE: 03 03 1981              CUMULATIVE TIME STEP:     154
 MODFLOW STRESS PERIOD      2     CURRENT TIME STEP:     154     ITERATIONS:      11

 -----------------------------------------------------------------------------------

   CUMULATIVE VOLUMES               L**3   RATES FOR THIS TIME STEP           L**3/T
   ------------------                      ------------------------

                                     IN                                         IN
                                     --                                         --
        PRECIPITATION =        1.3447D+07          PRECIPITATION =                  
           STREAMFLOW =                               STREAMFLOW =                  
     GW BOUNDARY FLOW =                         GW BOUNDARY FLOW =                  


                                    OUT                                        OUT
                                    ---                                        ---
   EVAPOTRANSPIRATION =        4342519.43     EVAPOTRANSPIRATION =          45353.37
           STREAMFLOW =        3212918.30             STREAMFLOW =          27515.95
     GW BOUNDARY FLOW =         100150.10       GW BOUNDARY FLOW =            652.28

   INFLOWS - OUTFLOWS =        5791030.96     INFLOWS - OUTFLOWS =         -73521.60
             --------                                   --------

 TOTAL STORAGE CHANGE =        5799679.88         STORAGE CHANGE =         -73531.49
       --------------                             --------------
         LAND SURFACE =        5068234.96           LAND SURFACE =         -66032.09
            SOIL ZONE =        2487931.53              SOIL ZONE =           2972.68
     UNSATURATED ZONE =       -1087777.41       UNSATURATED ZONE =          -7918.32
       SATURATED ZONE =        -668709.21         SATURATED ZONE =          -2553.76

 OVERALL BUDGET ERROR =          -8648.91           BUDGET ERROR =              9.88


  PERCENT DISCREPANCY =             -0.06    PERCENT DISCREPANCY =              0.01



1
 SUMMARY VOLUMETRIC BUDGET FOR GSFLOW 
 DATE: 03 10 1981              CUMULATIVE TIME STEP:     161
 MODFLOW STRESS PERIOD      2     CURRENT TIME STEP:     161     ITERATIONS:      11

 -----------------------------------------------------------------------------------

   CUMULATIVE VOLUMES               L**3   RATES FOR THIS TIME STEP           L**3/T
   ------------------                      ------------------------

                                     IN                                         IN
                                     --                                         --
        PRECIPITATION =        1.3493D+07          PRECIPITATION =                  
           STREAMFLOW =                               STREAMFLOW =                  
     GW BOUNDARY FLOW =                         GW BOUNDARY FLOW =                  


                                    OUT                                        OUT
                                    ---                                        ---
   EVAPOTRANSPIRATION =        4688301.87     EVAPOTRANSPIRATION =          72809.14
           STREAMFLOW =        3447113.13             STREAMFLOW =          43374.91
     GW BOUNDARY FLOW =         104715.93       GW BOUNDARY FLOW =            652.90

   INFLOWS - OUTFLOWS =        5252823.59     INFLOWS - OUTFLOWS =        -116836.95
             --------                                   --------

 TOTAL STORAGE CHANGE =        5261404.99         STORAGE CHANGE =        -116841.52
       --------------                             --------------
         LAND SURFACE =        4391776.94           LAND SURFACE =        -169082.62
            SOIL ZONE =        2602260.98              SOIL ZONE =          28935.87
     UNSATURATED ZONE =       -1048690.51       UNSATURATED ZONE =          24061.03
       SATURATED ZONE =        -683942.41         SATURATED ZONE =           -755.80

 OVERALL BUDGET ERROR =          -8581.40           BUDGET ERROR =              4.57


  PERCENT DISCREPANCY =             -0.06    PERCENT DISCREPANCY =              0.00



1
 SUMMARY VOLUMETRIC BUDGET FOR GSFLOW 
 DATE: 03 17 1981              CUMULATIVE TIME STEP:     168
 MODFLOW STRESS PERIOD      2     CURRENT TIME STEP:     168     ITERATIONS:       9

 -----------------------------------------------------------------------------------

   CUMULATIVE VOLUMES               L**3   RATES FOR THIS TIME STEP           L**3/T
   ------------------                      ------------------------

                                     IN                                         IN
                                     --                                         --
        PRECIPITATION =        1.3745D+07          PRECIPITATION =                  
           STREAMFLOW =                               STREAMFLOW =                  
     GW BOUNDARY FLOW =                         GW BOUNDARY FLOW =                  


                                    OUT                                        OUT
                                    ---                                        ---
   EVAPOTRANSPIRATION =        5056706.60     EVAPOTRANSPIRATION =          40234.43
           STREAMFLOW =        3672622.46             STREAMFLOW =          23955.09
     GW BOUNDARY FLOW =         109283.01       GW BOUNDARY FLOW =            651.85

   INFLOWS - OUTFLOWS =        4905890.75     INFLOWS - OUTFLOWS =         -64841.37
             --------                                   --------

 TOTAL STORAGE CHANGE =        4914386.82         STORAGE CHANGE =         -64841.95
       --------------                             --------------
         LAND SURFACE =        4202563.01           LAND SURFACE =         -39897.20
            SOIL ZONE =        2437115.04              SOIL ZONE =          -5398.99
     UNSATURATED ZONE =       -1023488.92       UNSATURATED ZONE =         -15132.99
       SATURATED ZONE =        -701802.31         SATURATED ZONE =          -4412.77

 OVERALL BUDGET ERROR =          -8496.07           BUDGET ERROR =              0.58


  PERCENT DISCREPANCY =             -0.06    PERCENT DISCREPANCY =              0.00



1
 SUMMARY VOLUMETRIC BUDGET FOR GSFLOW 
 DATE: 03 24 1981              CUMULATIVE TIME STEP:     175
 MODFLOW STRESS PERIOD      2     CURRENT TIME STEP:     175     ITERATIONS:      10

 -----------------------------------------------------------------------------------

   CUMULATIVE VOLUMES               L**3   RATES FOR THIS TIME STEP           L**3/T
   ------------------                      ------------------------

                                     IN                                         IN
                                     --                                         --
        PRECIPITATION =        1.4367D+07          PRECIPITATION =                  
           STREAMFLOW =                               STREAMFLOW =                  
     GW BOUNDARY FLOW =                         GW BOUNDARY FLOW =                  


                                    OUT                                        OUT
                                    ---                                        ---
   EVAPOTRANSPIRATION =        5412488.86     EVAPOTRANSPIRATION =          87430.63
           STREAMFLOW =        3846950.92             STREAMFLOW =          26610.48
     GW BOUNDARY FLOW =         113843.24       GW BOUNDARY FLOW =            651.42

   INFLOWS - OUTFLOWS =        4993473.22     INFLOWS - OUTFLOWS =        -114692.53
             --------                                   --------

 TOTAL STORAGE CHANGE =        5002000.25         STORAGE CHANGE =        -114696.13
       --------------                             --------------
         LAND SURFACE =        4477883.39           LAND SURFACE =         -65021.85
            SOIL ZONE =        2350001.90              SOIL ZONE =         -41048.58
     UNSATURATED ZONE =       -1089210.71       UNSATURATED ZONE =          -3419.04
       SATURATED ZONE =        -736674.33         SATURATED ZONE =          -5206.66

 OVERALL BUDGET ERROR =          -8527.04           BUDGET ERROR =              3.60


  PERCENT DISCREPANCY =             -0.06    PERCENT DISCREPANCY =              0.00



1
 SUMMARY VOLUMETRIC BUDGET FOR GSFLOW 
 DATE: 03 31 1981              CUMULATIVE TIME STEP:     182
 MODFLOW STRESS PERIOD      2     CURRENT TIME STEP:     182     ITERATIONS:      12

 -----------------------------------------------------------------------------------

   CUMULATIVE VOLUMES               L**3   RATES FOR THIS TIME STEP           L**3/T
   ------------------                      ------------------------

                                     IN                                         IN
                                     --                                         --
        PRECIPITATION =        1.5777D+07          PRECIPITATION =                  
           STREAMFLOW =                               STREAMFLOW =                  
     GW BOUNDARY FLOW =                         GW BOUNDARY FLOW =                  


                                    OUT                                        OUT
                                    ---                                        ---
   EVAPOTRANSPIRATION =        5842419.64     EVAPOTRANSPIRATION =          54089.89
           STREAMFLOW =        4353815.16             STREAMFLOW =          36900.35
     GW BOUNDARY FLOW =         118425.07       GW BOUNDARY FLOW =            653.58

   INFLOWS - OUTFLOWS =        5462106.32     INFLOWS - OUTFLOWS =         -91643.82
             --------                                   --------

 TOTAL STORAGE CHANGE =        5470564.92         STORAGE CHANGE =         -91661.24
       --------------                             --------------
         LAND SURFACE =        4494493.36           LAND SURFACE =         -55486.84
            SOIL ZONE =        2546333.88              SOIL ZONE =         -41750.40
     UNSATURATED ZONE =        -840086.67       UNSATURATED ZONE =           6110.61
       SATURATED ZONE =        -730175.65         SATURATED ZONE =           -534.60

 OVERALL BUDGET ERROR =          -8458.59           BUDGET ERROR =             17.42


  PERCENT DISCREPANCY =             -0.05    PERCENT DISCREPANCY =              0.02



1
 SUMMARY VOLUMETRIC BUDGET FOR GSFLOW 
 DATE: 04 07 1981              CUMULATIVE TIME STEP:     189
 MODFLOW STRESS PERIOD      2     CURRENT TIME STEP:     189     ITERATIONS:      10

 -----------------------------------------------------------------------------------

   CUMULATIVE VOLUMES               L**3   RATES FOR THIS TIME STEP           L**3/T
   ------------------                      ------------------------

                                     IN                                         IN
                                     --                                         --
        PRECIPITATION =        1.6121D+07          PRECIPITATION =                  
           STREAMFLOW =                               STREAMFLOW =                  
     GW BOUNDARY FLOW =                         GW BOUNDARY FLOW =                  


                                    OUT                                        OUT
                                    ---                                        ---
   EVAPOTRANSPIRATION =        6468483.77     EVAPOTRANSPIRATION =         103842.76
           STREAMFLOW =        4670627.25             STREAMFLOW =          43203.27
     GW BOUNDARY FLOW =         123000.21       GW BOUNDARY FLOW =            653.71

   INFLOWS - OUTFLOWS =        4859371.92     INFLOWS - OUTFLOWS =        -147699.74
             --------                                   --------

 TOTAL STORAGE CHANGE =        4867714.61         STORAGE CHANGE =        -147728.02
       --------------                             --------------
         LAND SURFACE =        3870392.88           LAND SURFACE =        -138669.71
            SOIL ZONE =        2477735.18              SOIL ZONE =         -20340.27
     UNSATURATED ZONE =        -754508.13       UNSATURATED ZONE =          10829.72
       SATURATED ZONE =        -725905.32         SATURATED ZONE =            452.24

 OVERALL BUDGET ERROR =          -8342.69           BUDGET ERROR =             28.28


  PERCENT DISCREPANCY =             -0.05    PERCENT DISCREPANCY =              0.02



1
 SUMMARY VOLUMETRIC BUDGET FOR GSFLOW 
 DATE: 04 14 1981              CUMULATIVE TIME STEP:     196
 MODFLOW STRESS PERIOD      2     CURRENT TIME STEP:     196     ITERATIONS:      13

 -----------------------------------------------------------------------------------

   CUMULATIVE VOLUMES               L**3   RATES FOR THIS TIME STEP           L**3/T
   ------------------                      ------------------------

                                     IN                                         IN
                                     --                                         --
        PRECIPITATION =        1.6121D+07          PRECIPITATION =                  
           STREAMFLOW =                               STREAMFLOW =                  
     GW BOUNDARY FLOW =                         GW BOUNDARY FLOW =                  


                                    OUT                                        OUT
                                    ---                                        ---
   EVAPOTRANSPIRATION =        7379173.51     EVAPOTRANSPIRATION =         191910.02
           STREAMFLOW =        4996433.16             STREAMFLOW =          55266.68
     GW BOUNDARY FLOW =         127575.45       GW BOUNDARY FLOW =            653.66

   INFLOWS - OUTFLOWS =        3618301.03     INFLOWS - OUTFLOWS =        -247830.36
             --------                                   --------

 TOTAL STORAGE CHANGE =        3626501.24         STORAGE CHANGE =        -247844.35
       --------------                             --------------
         LAND SURFACE =        2621639.71           LAND SURFACE =        -253015.87
            SOIL ZONE =        2386174.20              SOIL ZONE =         -16797.17
     UNSATURATED ZONE =        -662451.58       UNSATURATED ZONE =          19871.58
       SATURATED ZONE =        -718861.08         SATURATED ZONE =           2097.11

 OVERALL BUDGET ERROR =          -8200.21           BUDGET ERROR =             13.99


  PERCENT DISCREPANCY =             -0.05    PERCENT DISCREPANCY =              0.01



1
 SUMMARY VOLUMETRIC BUDGET FOR GSFLOW 
 DATE: 04 21 1981              CUMULATIVE TIME STEP:     203
 MODFLOW STRESS PERIOD      2     CURRENT TIME STEP:     203     ITERATIONS:      12

 -----------------------------------------------------------------------------------

   CUMULATIVE VOLUMES               L**3   RATES FOR THIS TIME STEP           L**3/T
   ------------------                      ------------------------

                                     IN                                         IN
                                     --                                         --
        PRECIPITATION =        1.6310D+07          PRECIPITATION =                  
           STREAMFLOW =                               STREAMFLOW =                  
     GW BOUNDARY FLOW =                         GW BOUNDARY FLOW =                  


                                    OUT                                        OUT
                                    ---                                        ---
   EVAPOTRANSPIRATION =        8451123.50     EVAPOTRANSPIRATION =         152240.78
           STREAMFLOW =        5334436.07             STREAMFLOW =          45625.42
     GW BOUNDARY FLOW =         132146.77       GW BOUNDARY FLOW =            652.62

   INFLOWS - OUTFLOWS =        2392551.07     INFLOWS - OUTFLOWS =        -198518.81
             --------                                   --------

 TOTAL STORAGE CHANGE =        2400629.07         STORAGE CHANGE =        -198544.12
       --------------                             --------------
         LAND SURFACE =        1441063.64           LAND SURFACE =        -121364.40
            SOIL ZONE =        2204109.33              SOIL ZONE =         -97354.27
     UNSATURATED ZONE =        -541548.16       UNSATURATED ZONE =          17375.84
       SATURATED ZONE =        -702995.75         SATURATED ZONE =           2798.72

 OVERALL BUDGET ERROR =          -8078.00           BUDGET ERROR =             25.30


  PERCENT DISCREPANCY =             -0.05    PERCENT DISCREPANCY =              0.01



1
 SUMMARY VOLUMETRIC BUDGET FOR GSFLOW 
 DATE: 04 28 1981              CUMULATIVE TIME STEP:     210
 MODFLOW STRESS PERIOD      2     CURRENT TIME STEP:     210     ITERATIONS:      14

 -----------------------------------------------------------------------------------

   CUMULATIVE VOLUMES               L**3   RATES FOR THIS TIME STEP           L**3/T
   ------------------                      ------------------------

                                     IN                                         IN
                                     --                                         --
        PRECIPITATION =        1.6515D+07          PRECIPITATION =                  
           STREAMFLOW =                               STREAMFLOW =                  
     GW BOUNDARY FLOW =                         GW BOUNDARY FLOW =                  


                                    OUT                                        OUT
                                    ---                                        ---
   EVAPOTRANSPIRATION =        9689226.63     EVAPOTRANSPIRATION =         200394.63
           STREAMFLOW =        5545700.49             STREAMFLOW =          24566.40
     GW BOUNDARY FLOW =         136706.15       GW BOUNDARY FLOW =            650.46

   INFLOWS - OUTFLOWS =        1143813.69     INFLOWS - OUTFLOWS =        -225611.49
             --------                                   --------

 TOTAL STORAGE CHANGE =        1151778.84         STORAGE CHANGE =        -225630.47
       --------------                             --------------
         LAND SURFACE =         691620.74           LAND SURFACE =         -83515.74
            SOIL ZONE =        1694190.15              SOIL ZONE =        -138444.11
     UNSATURATED ZONE =        -537495.92       UNSATURATED ZONE =          -3921.83
       SATURATED ZONE =        -696536.13         SATURATED ZONE =            251.21

 OVERALL BUDGET ERROR =          -7965.15           BUDGET ERROR =             18.98


  PERCENT DISCREPANCY =             -0.05    PERCENT DISCREPANCY =              0.01



1
 SUMMARY VOLUMETRIC BUDGET FOR GSFLOW 
 DATE: 05 05 1981              CUMULATIVE TIME STEP:     217
 MODFLOW STRESS PERIOD      2     CURRENT TIME STEP:     217     ITERATIONS:      13

 -----------------------------------------------------------------------------------

   CUMULATIVE VOLUMES               L**3   RATES FOR THIS TIME STEP           L**3/T
   ------------------                      ------------------------

                                     IN                                         IN
                                     --                                         --
        PRECIPITATION =        1.6515D+07          PRECIPITATION =                  
           STREAMFLOW =                               STREAMFLOW =                  
     GW BOUNDARY FLOW =                         GW BOUNDARY FLOW =                  


                                    OUT                                        OUT
                                    ---                                        ---
   EVAPOTRANSPIRATION =        1.0576D+07     EVAPOTRANSPIRATION =          52052.81
           STREAMFLOW =        5650207.35             STREAMFLOW =          10552.30
     GW BOUNDARY FLOW =         141252.41       GW BOUNDARY FLOW =            648.77

   INFLOWS - OUTFLOWS =         147974.59     INFLOWS - OUTFLOWS =         -63253.88
             --------                                   --------

 TOTAL STORAGE CHANGE =         155873.06         STORAGE CHANGE =         -63258.07
       --------------                             --------------
         LAND SURFACE =         347403.61           LAND SURFACE =         -17503.36
            SOIL ZONE =        1152442.94              SOIL ZONE =         -26340.52
     UNSATURATED ZONE =        -633324.12       UNSATURATED ZONE =         -16270.10
       SATURATED ZONE =        -710649.38         SATURATED ZONE =          -3144.09

 OVERALL BUDGET ERROR =          -7898.47           BUDGET ERROR =              4.19


  PERCENT DISCREPANCY =             -0.05    PERCENT DISCREPANCY =              0.01



1
 SUMMARY VOLUMETRIC BUDGET FOR GSFLOW 
 DATE: 05 12 1981              CUMULATIVE TIME STEP:     224
 MODFLOW STRESS PERIOD      2     CURRENT TIME STEP:     224     ITERATIONS:      16

 -----------------------------------------------------------------------------------

   CUMULATIVE VOLUMES               L**3   RATES FOR THIS TIME STEP           L**3/T
   ------------------                      ------------------------

                                     IN                                         IN
                                     --                                         --
        PRECIPITATION =        1.6515D+07          PRECIPITATION =                  
           STREAMFLOW =                               STREAMFLOW =                  
     GW BOUNDARY FLOW =                         GW BOUNDARY FLOW =                  


                                    OUT                                        OUT
                                    ---                                        ---
   EVAPOTRANSPIRATION =        1.1096D+07     EVAPOTRANSPIRATION =          91315.64
           STREAMFLOW =        5718930.93             STREAMFLOW =          10078.64
     GW BOUNDARY FLOW =         145790.77       GW BOUNDARY FLOW =            648.16

   INFLOWS - OUTFLOWS =        -445292.06     INFLOWS - OUTFLOWS =        -102042.44
             --------                                   --------

 TOTAL STORAGE CHANGE =        -437406.71         STORAGE CHANGE =        -102041.65
       --------------                             --------------
         LAND SURFACE =         198720.95           LAND SURFACE =         -25499.92
            SOIL ZONE =         844287.65              SOIL ZONE =         -57488.60
     UNSATURATED ZONE =        -740025.10       UNSATURATED ZONE =         -13588.01
       SATURATED ZONE =        -740390.21         SATURATED ZONE =          -5465.12

 OVERALL BUDGET ERROR =          -7885.36           BUDGET ERROR =             -0.79


  PERCENT DISCREPANCY =             -0.05    PERCENT DISCREPANCY =             -0.00



1
 SUMMARY VOLUMETRIC BUDGET FOR GSFLOW 
 DATE: 05 19 1981              CUMULATIVE TIME STEP:     231
 MODFLOW STRESS PERIOD      2     CURRENT TIME STEP:     231     ITERATIONS:      15

 -----------------------------------------------------------------------------------

   CUMULATIVE VOLUMES               L**3   RATES FOR THIS TIME STEP           L**3/T
   ------------------                      ------------------------

                                     IN                                         IN
                                     --                                         --
        PRECIPITATION =        1.7837D+07          PRECIPITATION =         169047.83
           STREAMFLOW =                               STREAMFLOW =                  
     GW BOUNDARY FLOW =                         GW BOUNDARY FLOW =                  


                                    OUT                                        OUT
                                    ---                                        ---
   EVAPOTRANSPIRATION =        1.1454D+07     EVAPOTRANSPIRATION =          35342.78
           STREAMFLOW =        5843130.52             STREAMFLOW =          25628.36
     GW BOUNDARY FLOW =         150329.73       GW BOUNDARY FLOW =            649.43

   INFLOWS - OUTFLOWS =         390068.39     INFLOWS - OUTFLOWS =         107427.27
             --------                                   --------

 TOTAL STORAGE CHANGE =         397950.98         STORAGE CHANGE =         107420.70
       --------------                             --------------
         LAND SURFACE =         167126.53           LAND SURFACE =           4530.43
            SOIL ZONE =        1823128.43              SOIL ZONE =         110258.15
     UNSATURATED ZONE =        -811667.44       UNSATURATED ZONE =          -1819.76
       SATURATED ZONE =        -780636.54         SATURATED ZONE =          -5548.12

 OVERALL BUDGET ERROR =          -7882.59           BUDGET ERROR =              6.56


  PERCENT DISCREPANCY =             -0.04    PERCENT DISCREPANCY =              0.00



1
 SUMMARY VOLUMETRIC BUDGET FOR GSFLOW 
 DATE: 05 26 1981              CUMULATIVE TIME STEP:     238
 MODFLOW STRESS PERIOD      2     CURRENT TIME STEP:     238     ITERATIONS:      12

 -----------------------------------------------------------------------------------

   CUMULATIVE VOLUMES               L**3   RATES FOR THIS TIME STEP           L**3/T
   ------------------                      ------------------------

                                     IN                                         IN
                                     --                                         --
        PRECIPITATION =        1.8252D+07          PRECIPITATION =         284301.98
           STREAMFLOW =                               STREAMFLOW =                  
     GW BOUNDARY FLOW =                         GW BOUNDARY FLOW =                  


                                    OUT                                        OUT
                                    ---                                        ---
   EVAPOTRANSPIRATION =        1.2352D+07     EVAPOTRANSPIRATION =         145741.24
           STREAMFLOW =        5949185.15             STREAMFLOW =          18169.47
     GW BOUNDARY FLOW =         154870.31       GW BOUNDARY FLOW =            648.41

   INFLOWS - OUTFLOWS =        -204188.85     INFLOWS - OUTFLOWS =         119742.86
             --------                                   --------

 TOTAL STORAGE CHANGE =        -196301.79         STORAGE CHANGE =         119747.03
       --------------                             --------------
         LAND SURFACE =          96901.93           LAND SURFACE =          -7055.52
            SOIL ZONE =        1408105.06              SOIL ZONE =         144577.90
     UNSATURATED ZONE =        -872151.55       UNSATURATED ZONE =         -10780.65
       SATURATED ZONE =        -829157.23         SATURATED ZONE =          -6994.70

 OVERALL BUDGET ERROR =          -7887.06           BUDGET ERROR =             -4.17


  PERCENT DISCREPANCY =             -0.04    PERCENT DISCREPANCY =             -0.00



1
 SUMMARY VOLUMETRIC BUDGET FOR GSFLOW 
 DATE: 06 02 1981              CUMULATIVE TIME STEP:     245
 MODFLOW STRESS PERIOD      2     CURRENT TIME STEP:     245     ITERATIONS:      14

 -----------------------------------------------------------------------------------

   CUMULATIVE VOLUMES               L**3   RATES FOR THIS TIME STEP           L**3/T
   ------------------                      ------------------------

                                     IN                                         IN
                                     --                                         --
        PRECIPITATION =        1.8318D+07          PRECIPITATION =          50867.39
           STREAMFLOW =                               STREAMFLOW =                  
     GW BOUNDARY FLOW =                         GW BOUNDARY FLOW =                  


                                    OUT                                        OUT
                                    ---                                        ---
   EVAPOTRANSPIRATION =        1.3158D+07     EVAPOTRANSPIRATION =          64369.70
           STREAMFLOW =        6015169.49             STREAMFLOW =           7448.41
     GW BOUNDARY FLOW =         159404.89       GW BOUNDARY FLOW =            647.37

   INFLOWS - OUTFLOWS =       -1014341.89     INFLOWS - OUTFLOWS =         -21598.09
             --------                                   --------

 TOTAL STORAGE CHANGE =       -1006432.78         STORAGE CHANGE =         -21603.62
       --------------                             --------------
         LAND SURFACE =          61824.55           LAND SURFACE =          30829.61
            SOIL ZONE =         778704.45              SOIL ZONE =         -30290.11
     UNSATURATED ZONE =        -960161.45       UNSATURATED ZONE =         -13445.03
       SATURATED ZONE =        -886800.34         SATURATED ZONE =          -8698.08

 OVERALL BUDGET ERROR =          -7909.11           BUDGET ERROR =              5.53


  PERCENT DISCREPANCY =             -0.04    PERCENT DISCREPANCY =              0.01



1
 SUMMARY VOLUMETRIC BUDGET FOR GSFLOW 
 DATE: 06 09 1981              CUMULATIVE TIME STEP:     252
 MODFLOW STRESS PERIOD      2     CURRENT TIME STEP:     252     ITERATIONS:      13

 -----------------------------------------------------------------------------------

   CUMULATIVE VOLUMES               L**3   RATES FOR THIS TIME STEP           L**3/T
   ------------------                      ------------------------

                                     IN                                         IN
                                     --                                         --
        PRECIPITATION =        1.8318D+07          PRECIPITATION =                  
           STREAMFLOW =                               STREAMFLOW =                  
     GW BOUNDARY FLOW =                         GW BOUNDARY FLOW =                  


                                    OUT                                        OUT
                                    ---                                        ---
   EVAPOTRANSPIRATION =        1.3620D+07     EVAPOTRANSPIRATION =          48005.60
           STREAMFLOW =        6061659.37             STREAMFLOW =           6295.40
     GW BOUNDARY FLOW =         163934.49       GW BOUNDARY FLOW =            646.93

   INFLOWS - OUTFLOWS =       -1527748.06     INFLOWS - OUTFLOWS =         -54947.92
             --------                                   --------

 TOTAL STORAGE CHANGE =       -1519830.14         STORAGE CHANGE =         -54949.75
       --------------                             --------------
         LAND SURFACE =           8254.44           LAND SURFACE =          -1595.45
            SOIL ZONE =         473818.74              SOIL ZONE =         -31258.18
     UNSATURATED ZONE =       -1051843.45       UNSATURATED ZONE =         -12834.53
       SATURATED ZONE =        -950059.87         SATURATED ZONE =          -9261.60

 OVERALL BUDGET ERROR =          -7917.92           BUDGET ERROR =              1.83


  PERCENT DISCREPANCY =             -0.04    PERCENT DISCREPANCY =              0.00



1
 SUMMARY VOLUMETRIC BUDGET FOR GSFLOW 
 DATE: 06 16 1981              CUMULATIVE TIME STEP:     259
 MODFLOW STRESS PERIOD      2     CURRENT TIME STEP:     259     ITERATIONS:      12

 -----------------------------------------------------------------------------------

   CUMULATIVE VOLUMES               L**3   RATES FOR THIS TIME STEP           L**3/T
   ------------------                      ------------------------

                                     IN                                         IN
                                     --                                         --
        PRECIPITATION =        1.8318D+07          PRECIPITATION =                  
           STREAMFLOW =                               STREAMFLOW =                  
     GW BOUNDARY FLOW =                         GW BOUNDARY FLOW =                  


                                    OUT                                        OUT
                                    ---                                        ---
   EVAPOTRANSPIRATION =        1.3803D+07     EVAPOTRANSPIRATION =          43869.11
           STREAMFLOW =        6104712.55             STREAMFLOW =           6087.43
     GW BOUNDARY FLOW =         168462.11       GW BOUNDARY FLOW =            646.72

   INFLOWS - OUTFLOWS =       -1757885.21     INFLOWS - OUTFLOWS =         -50603.26
             --------                                   --------

 TOTAL STORAGE CHANGE =       -1749922.87         STORAGE CHANGE =         -50589.75
       --------------                             --------------
         LAND SURFACE =           3426.51           LAND SURFACE =           -943.67
            SOIL ZONE =         401875.66              SOIL ZONE =         -27880.42
     UNSATURATED ZONE =       -1139220.97       UNSATURATED ZONE =         -12182.46
       SATURATED ZONE =       -1016004.08         SATURATED ZONE =          -9583.20

 OVERALL BUDGET ERROR =          -7962.34           BUDGET ERROR =            -13.51


  PERCENT DISCREPANCY =             -0.04    PERCENT DISCREPANCY =             -0.03



1
 SUMMARY VOLUMETRIC BUDGET FOR GSFLOW 
 DATE: 06 23 1981              CUMULATIVE TIME STEP:     266
 MODFLOW STRESS PERIOD      2     CURRENT TIME STEP:     266     ITERATIONS:      14

 -----------------------------------------------------------------------------------

   CUMULATIVE VOLUMES               L**3   RATES FOR THIS TIME STEP           L**3/T
   ------------------                      ------------------------

                                     IN                                         IN
                                     --                                         --
        PRECIPITATION =        1.8318D+07          PRECIPITATION =                  
           STREAMFLOW =                               STREAMFLOW =                  
     GW BOUNDARY FLOW =                         GW BOUNDARY FLOW =                  


                                    OUT                                        OUT
                                    ---                                        ---
   EVAPOTRANSPIRATION =        1.4079D+07     EVAPOTRANSPIRATION =          31127.44
           STREAMFLOW =        6146494.47             STREAMFLOW =           5906.96
     GW BOUNDARY FLOW =         172988.51       GW BOUNDARY FLOW =            646.56

   INFLOWS - OUTFLOWS =       -2080162.93     INFLOWS - OUTFLOWS =         -37680.95
             --------                                   --------

 TOTAL STORAGE CHANGE =       -2072176.34         STORAGE CHANGE =         -37682.19
       --------------                             --------------
         LAND SURFACE =                             LAND SURFACE =                  
            SOIL ZONE =         234344.26              SOIL ZONE =         -16181.58
     UNSATURATED ZONE =       -1222896.70       UNSATURATED ZONE =         -11668.92
       SATURATED ZONE =       -1083623.90         SATURATED ZONE =          -9831.68

 OVERALL BUDGET ERROR =          -7986.59           BUDGET ERROR =              1.23


  PERCENT DISCREPANCY =             -0.04    PERCENT DISCREPANCY =              0.00



1
 SUMMARY VOLUMETRIC BUDGET FOR GSFLOW 
 DATE: 06 30 1981              CUMULATIVE TIME STEP:     273
 MODFLOW STRESS PERIOD      2     CURRENT TIME STEP:     273     ITERATIONS:       9

 -----------------------------------------------------------------------------------

   CUMULATIVE VOLUMES               L**3   RATES FOR THIS TIME STEP           L**3/T
   ------------------                      ------------------------

                                     IN                                         IN
[...]
     GW BOUNDARY FLOW =        3735324.39       GW BOUNDARY FLOW =            650.64

   INFLOWS - OUTFLOWS =       -7999893.59     INFLOWS - OUTFLOWS =         -47479.15
             --------                                   --------

 TOTAL STORAGE CHANGE =       -7890553.07         STORAGE CHANGE =         -47492.53
       --------------                             --------------
         LAND SURFACE =          84521.90           LAND SURFACE =          -4963.73
            SOIL ZONE =         210086.70              SOIL ZONE =         -21302.13
     UNSATURATED ZONE =        5335293.22       UNSATURATED ZONE =         -27469.25
       SATURATED ZONE =       -1.3520D+07         SATURATED ZONE =           6242.58

 OVERALL BUDGET ERROR =        -109340.52           BUDGET ERROR =             13.38


  PERCENT DISCREPANCY =             -0.02    PERCENT DISCREPANCY =              0.03



1
 SUMMARY VOLUMETRIC BUDGET FOR GSFLOW 
 DATE: 07 30 1996              CUMULATIVE TIME STEP:    5782
 MODFLOW STRESS PERIOD      2     CURRENT TIME STEP:    5782     ITERATIONS:      14

 -----------------------------------------------------------------------------------

   CUMULATIVE VOLUMES               L**3   RATES FOR THIS TIME STEP           L**3/T
   ------------------                      ------------------------

                                     IN                                         IN
                                     --                                         --
        PRECIPITATION =        4.6511D+08          PRECIPITATION =                  
           STREAMFLOW =                               STREAMFLOW =                  
     GW BOUNDARY FLOW =                         GW BOUNDARY FLOW =                  


                                    OUT                                        OUT
                                    ---                                        ---
   EVAPOTRANSPIRATION =        2.9056D+08     EVAPOTRANSPIRATION =          24844.67
           STREAMFLOW =        1.7906D+08             STREAMFLOW =           6726.35
     GW BOUNDARY FLOW =        3739877.30       GW BOUNDARY FLOW =            650.23

   INFLOWS - OUTFLOWS =       -8250367.97     INFLOWS - OUTFLOWS =         -32221.24
             --------                                   --------

 TOTAL STORAGE CHANGE =       -8141102.53         STORAGE CHANGE =         -32242.13
       --------------                             --------------
         LAND SURFACE =          55427.09           LAND SURFACE =          -3488.58
            SOIL ZONE =         135832.94              SOIL ZONE =          -7847.76
     UNSATURATED ZONE =        5147610.02       UNSATURATED ZONE =         -26434.78
       SATURATED ZONE =       -1.3480D+07         SATURATED ZONE =           5529.00

 OVERALL BUDGET ERROR =        -109265.44           BUDGET ERROR =             20.89


  PERCENT DISCREPANCY =             -0.02    PERCENT DISCREPANCY =              0.06



1
 SUMMARY VOLUMETRIC BUDGET FOR GSFLOW 
 DATE: 08 06 1996              CUMULATIVE TIME STEP:    5789
 MODFLOW STRESS PERIOD      2     CURRENT TIME STEP:    5789     ITERATIONS:      13

 -----------------------------------------------------------------------------------

   CUMULATIVE VOLUMES               L**3   RATES FOR THIS TIME STEP           L**3/T
   ------------------                      ------------------------

                                     IN                                         IN
                                     --                                         --
        PRECIPITATION =        4.6511D+08          PRECIPITATION =                  
           STREAMFLOW =                               STREAMFLOW =                  
     GW BOUNDARY FLOW =                         GW BOUNDARY FLOW =                  


                                    OUT                                        OUT
                                    ---                                        ---
   EVAPOTRANSPIRATION =        2.9069D+08     EVAPOTRANSPIRATION =          17215.96
           STREAMFLOW =        1.7911D+08             STREAMFLOW =           6526.16
     GW BOUNDARY FLOW =        3744427.14       GW BOUNDARY FLOW =            649.86

   INFLOWS - OUTFLOWS =       -8435260.55     INFLOWS - OUTFLOWS =         -24391.98
             --------                                   --------

 TOTAL STORAGE CHANGE =       -8326123.09         STORAGE CHANGE =         -24407.25
       --------------                             --------------
         LAND SURFACE =          37080.11           LAND SURFACE =          -2254.04
            SOIL ZONE =         114294.78              SOIL ZONE =          -1546.41
     UNSATURATED ZONE =        4966129.59       UNSATURATED ZONE =         -25523.36
       SATURATED ZONE =       -1.3444D+07         SATURATED ZONE =           4916.56

 OVERALL BUDGET ERROR =        -109137.46           BUDGET ERROR =             15.27


  PERCENT DISCREPANCY =             -0.02    PERCENT DISCREPANCY =              0.06



1
 SUMMARY VOLUMETRIC BUDGET FOR GSFLOW 
 DATE: 08 13 1996              CUMULATIVE TIME STEP:    5796
 MODFLOW STRESS PERIOD      2     CURRENT TIME STEP:    5796     ITERATIONS:      14

 -----------------------------------------------------------------------------------

   CUMULATIVE VOLUMES               L**3   RATES FOR THIS TIME STEP           L**3/T
   ------------------                      ------------------------

                                     IN                                         IN
                                     --                                         --
        PRECIPITATION =        4.6531D+08          PRECIPITATION =          54456.73
           STREAMFLOW =                               STREAMFLOW =                  
     GW BOUNDARY FLOW =                         GW BOUNDARY FLOW =                  


                                    OUT                                        OUT
                                    ---                                        ---
   EVAPOTRANSPIRATION =        2.9087D+08     EVAPOTRANSPIRATION =          36141.91
           STREAMFLOW =        1.7916D+08             STREAMFLOW =           7722.75
     GW BOUNDARY FLOW =        3748976.10       GW BOUNDARY FLOW =            649.91

   INFLOWS - OUTFLOWS =       -8462098.97     INFLOWS - OUTFLOWS =           9942.16
             --------                                   --------

 TOTAL STORAGE CHANGE =       -8353064.97         STORAGE CHANGE =           9926.28
       --------------                             --------------
         LAND SURFACE =          53177.14           LAND SURFACE =          -2312.81
            SOIL ZONE =         214039.01              SOIL ZONE =          32449.12
     UNSATURATED ZONE =        4792074.45       UNSATURATED ZONE =         -24267.62
       SATURATED ZONE =       -1.3412D+07         SATURATED ZONE =           4057.59

 OVERALL BUDGET ERROR =        -109034.00           BUDGET ERROR =             15.88


  PERCENT DISCREPANCY =             -0.02    PERCENT DISCREPANCY =              0.03



1
 SUMMARY VOLUMETRIC BUDGET FOR GSFLOW 
 DATE: 08 20 1996              CUMULATIVE TIME STEP:    5803
 MODFLOW STRESS PERIOD      2     CURRENT TIME STEP:    5803     ITERATIONS:      13

 -----------------------------------------------------------------------------------

   CUMULATIVE VOLUMES               L**3   RATES FOR THIS TIME STEP           L**3/T
   ------------------                      ------------------------

                                     IN                                         IN
                                     --                                         --
        PRECIPITATION =        4.6531D+08          PRECIPITATION =                  
           STREAMFLOW =                               STREAMFLOW =                  
     GW BOUNDARY FLOW =                         GW BOUNDARY FLOW =                  


                                    OUT                                        OUT
                                    ---                                        ---
   EVAPOTRANSPIRATION =        2.9107D+08     EVAPOTRANSPIRATION =          17033.75
           STREAMFLOW =        1.7920D+08             STREAMFLOW =           6335.07
     GW BOUNDARY FLOW =        3753524.08       GW BOUNDARY FLOW =            649.56

   INFLOWS - OUTFLOWS =       -8715903.95     INFLOWS - OUTFLOWS =         -24018.38
             --------                                   --------

 TOTAL STORAGE CHANGE =       -8606986.21         STORAGE CHANGE =         -24042.99
       --------------                             --------------
         LAND SURFACE =           6933.74           LAND SURFACE =          -1297.55
            SOIL ZONE =         147746.40              SOIL ZONE =          -2643.79
     UNSATURATED ZONE =        4626752.16       UNSATURATED ZONE =         -23148.80
       SATURATED ZONE =       -1.3388D+07         SATURATED ZONE =           3047.16

 OVERALL BUDGET ERROR =        -108917.74           BUDGET ERROR =             24.61


  PERCENT DISCREPANCY =             -0.02    PERCENT DISCREPANCY =              0.10



1
 SUMMARY VOLUMETRIC BUDGET FOR GSFLOW 
 DATE: 08 27 1996              CUMULATIVE TIME STEP:    5810
 MODFLOW STRESS PERIOD      2     CURRENT TIME STEP:    5810     ITERATIONS:      13

 -----------------------------------------------------------------------------------

   CUMULATIVE VOLUMES               L**3   RATES FOR THIS TIME STEP           L**3/T
   ------------------                      ------------------------

                                     IN                                         IN
                                     --                                         --
        PRECIPITATION =        4.6531D+08          PRECIPITATION =                  
           STREAMFLOW =                               STREAMFLOW =                  
     GW BOUNDARY FLOW =                         GW BOUNDARY FLOW =                  


                                    OUT                                        OUT
                                    ---                                        ---
   EVAPOTRANSPIRATION =        2.9121D+08     EVAPOTRANSPIRATION =          14809.60
           STREAMFLOW =        1.7924D+08             STREAMFLOW =           6177.40
     GW BOUNDARY FLOW =        3758069.69       GW BOUNDARY FLOW =            649.23

   INFLOWS - OUTFLOWS =       -8896671.46     INFLOWS - OUTFLOWS =         -21636.22
             --------                                   --------

 TOTAL STORAGE CHANGE =       -8787896.53         STORAGE CHANGE =         -21654.62
       --------------                             --------------
         LAND SURFACE =           1244.67           LAND SURFACE =           -272.68
            SOIL ZONE =         112238.83              SOIL ZONE =          -1525.38
     UNSATURATED ZONE =        4470136.56       UNSATURATED ZONE =         -22020.24
       SATURATED ZONE =       -1.3372D+07         SATURATED ZONE =           2163.67

 OVERALL BUDGET ERROR =        -108774.93           BUDGET ERROR =             18.39


  PERCENT DISCREPANCY =             -0.02    PERCENT DISCREPANCY =              0.08



1
 SUMMARY VOLUMETRIC BUDGET FOR GSFLOW 
 DATE: 09 03 1996              CUMULATIVE TIME STEP:    5817
 MODFLOW STRESS PERIOD      2     CURRENT TIME STEP:    5817     ITERATIONS:      12

 -----------------------------------------------------------------------------------

   CUMULATIVE VOLUMES               L**3   RATES FOR THIS TIME STEP           L**3/T
   ------------------                      ------------------------

                                     IN                                         IN
                                     --                                         --
        PRECIPITATION =        4.6531D+08          PRECIPITATION =                  
           STREAMFLOW =                               STREAMFLOW =                  
     GW BOUNDARY FLOW =                         GW BOUNDARY FLOW =                  


                                    OUT                                        OUT
                                    ---                                        ---
   EVAPOTRANSPIRATION =        2.9131D+08     EVAPOTRANSPIRATION =          12328.62
           STREAMFLOW =        1.7929D+08             STREAMFLOW =           6078.11
     GW BOUNDARY FLOW =        3762612.82       GW BOUNDARY FLOW =            648.85

   INFLOWS - OUTFLOWS =       -9043701.04     INFLOWS - OUTFLOWS =         -19055.58
             --------                                   --------

 TOTAL STORAGE CHANGE =       -8935084.44         STORAGE CHANGE =         -19073.60
       --------------                             --------------
         LAND SURFACE =            584.39           LAND SURFACE =            -75.06
            SOIL ZONE =         103835.79              SOIL ZONE =            634.97
     UNSATURATED ZONE =        4319555.48       UNSATURATED ZONE =         -21126.02
       SATURATED ZONE =       -1.3359D+07         SATURATED ZONE =           1492.51

 OVERALL BUDGET ERROR =        -108616.59           BUDGET ERROR =             18.01


  PERCENT DISCREPANCY =             -0.02    PERCENT DISCREPANCY =              0.09



1
 SUMMARY VOLUMETRIC BUDGET FOR GSFLOW 
 DATE: 09 10 1996              CUMULATIVE TIME STEP:    5824
 MODFLOW STRESS PERIOD      2     CURRENT TIME STEP:    5824     ITERATIONS:      12

 -----------------------------------------------------------------------------------

   CUMULATIVE VOLUMES               L**3   RATES FOR THIS TIME STEP           L**3/T
   ------------------                      ------------------------

                                     IN                                         IN
                                     --                                         --
        PRECIPITATION =        4.6531D+08          PRECIPITATION =                  
           STREAMFLOW =                               STREAMFLOW =                  
     GW BOUNDARY FLOW =                         GW BOUNDARY FLOW =                  


                                    OUT                                        OUT
                                    ---                                        ---
   EVAPOTRANSPIRATION =        2.9139D+08     EVAPOTRANSPIRATION =          13987.78
           STREAMFLOW =        1.7933D+08             STREAMFLOW =           5986.64
     GW BOUNDARY FLOW =        3767153.35       GW BOUNDARY FLOW =            648.49

   INFLOWS - OUTFLOWS =       -9173125.86     INFLOWS - OUTFLOWS =         -20622.90
             --------                                   --------

 TOTAL STORAGE CHANGE =       -9064694.87         STORAGE CHANGE =         -20655.44
       --------------                             --------------
         LAND SURFACE =            141.93           LAND SURFACE =            -69.29
            SOIL ZONE =         111302.98              SOIL ZONE =          -1151.80
     UNSATURATED ZONE =        4172105.82       UNSATURATED ZONE =         -20942.14
       SATURATED ZONE =       -1.3348D+07         SATURATED ZONE =           1507.80

 OVERALL BUDGET ERROR =        -108430.99           BUDGET ERROR =             32.53


  PERCENT DISCREPANCY =             -0.02    PERCENT DISCREPANCY =              0.16



1
 SUMMARY VOLUMETRIC BUDGET FOR GSFLOW 
 DATE: 09 17 1996              CUMULATIVE TIME STEP:    5831
 MODFLOW STRESS PERIOD      2     CURRENT TIME STEP:    5831     ITERATIONS:      11

 -----------------------------------------------------------------------------------

   CUMULATIVE VOLUMES               L**3   RATES FOR THIS TIME STEP           L**3/T
   ------------------                      ------------------------

                                     IN                                         IN
                                     --                                         --
        PRECIPITATION =        4.6637D+08          PRECIPITATION =                  
           STREAMFLOW =                               STREAMFLOW =                  
     GW BOUNDARY FLOW =                         GW BOUNDARY FLOW =                  


                                    OUT                                        OUT
                                    ---                                        ---
   EVAPOTRANSPIRATION =        2.9158D+08     EVAPOTRANSPIRATION =          63860.91
           STREAMFLOW =        1.7939D+08             STREAMFLOW =           9923.27
     GW BOUNDARY FLOW =        3771693.23       GW BOUNDARY FLOW =            648.89

   INFLOWS - OUTFLOWS =       -8379873.05     INFLOWS - OUTFLOWS =         -74433.07
             --------                                   --------

 TOTAL STORAGE CHANGE =       -8271632.51         STORAGE CHANGE =         -74471.47
       --------------                             --------------
         LAND SURFACE =           2829.02           LAND SURFACE =         -35615.32
            SOIL ZONE =        1034657.95              SOIL ZONE =         -19612.23
     UNSATURATED ZONE =        4029490.84       UNSATURATED ZONE =         -19960.00
       SATURATED ZONE =       -1.3339D+07         SATURATED ZONE =            716.08

 OVERALL BUDGET ERROR =        -108240.55           BUDGET ERROR =             38.39


  PERCENT DISCREPANCY =             -0.02    PERCENT DISCREPANCY =              0.05



1
 SUMMARY VOLUMETRIC BUDGET FOR GSFLOW 
 DATE: 09 24 1996              CUMULATIVE TIME STEP:    5838
 MODFLOW STRESS PERIOD      2     CURRENT TIME STEP:    5838     ITERATIONS:      12

 -----------------------------------------------------------------------------------

   CUMULATIVE VOLUMES               L**3   RATES FOR THIS TIME STEP           L**3/T
   ------------------                      ------------------------

                                     IN                                         IN
                                     --                                         --
        PRECIPITATION =        4.6637D+08          PRECIPITATION =                  
           STREAMFLOW =                               STREAMFLOW =                  
     GW BOUNDARY FLOW =                         GW BOUNDARY FLOW =                  


                                    OUT                                        OUT
                                    ---                                        ---
   EVAPOTRANSPIRATION =        2.9211D+08     EVAPOTRANSPIRATION =          62301.06
           STREAMFLOW =        1.7944D+08             STREAMFLOW =           6263.67
     GW BOUNDARY FLOW =        3776231.41       GW BOUNDARY FLOW =            647.97

   INFLOWS - OUTFLOWS =       -8967432.90     INFLOWS - OUTFLOWS =         -69212.70
             --------                                   --------

 TOTAL STORAGE CHANGE =       -8859417.87         STORAGE CHANGE =         -69233.45
       --------------                             --------------
         LAND SURFACE =                             LAND SURFACE =                  
            SOIL ZONE =         583766.59              SOIL ZONE =         -50183.32
     UNSATURATED ZONE =        3893563.39       UNSATURATED ZONE =         -19236.85
       SATURATED ZONE =       -1.3337D+07         SATURATED ZONE =            186.72

 OVERALL BUDGET ERROR =        -108015.03           BUDGET ERROR =             20.75


  PERCENT DISCREPANCY =             -0.02    PERCENT DISCREPANCY =              0.03



 Number of time steps:   5844;  Number of non-convergence:   0
 MF iterations:         63540;  SZ iterations:           63497
 Average MF iterations: 10.87;  Average SZ iterations:   10.87
 Maximum MF iterations:    32;  Maximum SZ iterations:      25

mxsziter reached: 14

