1
 SUMMARY VOLUMETRIC BUDGET FOR GSFLOW 
 DATE: 10 07 1980              CUMULATIVE TIME STEP:       7
 MODFLOW STRESS PERIOD      2     CURRENT TIME STEP:       7     ITERATIONS:       6

 -----------------------------------------------------------------------------------

   CUMULATIVE VOLUMES               L**3   RATES FOR THIS TIME STEP           L**3/T
   ------------------                      ------------------------

                                     IN                                         IN
                                     --                                         --
        PRECIPITATION =                            PRECIPITATION =                  
           STREAMFLOW =                               STREAMFLOW =                  
     GW BOUNDARY FLOW =                         GW BOUNDARY FLOW =                  


                                    OUT                                        OUT
                                    ---                                        ---
   EVAPOTRANSPIRATION =          66593.40     EVAPOTRANSPIRATION =           9275.38
           STREAMFLOW =          42957.50             STREAMFLOW =           6065.76
     GW BOUNDARY FLOW =           4541.44       GW BOUNDARY FLOW =            648.70

   INFLOWS - OUTFLOWS =        -114092.34     INFLOWS - OUTFLOWS =         -15989.84
             --------                                   --------

 TOTAL STORAGE CHANGE =        -113696.73         STORAGE CHANGE =         -15929.26
       --------------                             --------------
         LAND SURFACE =                             LAND SURFACE =                  
            SOIL ZONE =          43922.58              SOIL ZONE =           6420.93
     UNSATURATED ZONE =        -144779.04       UNSATURATED ZONE =         -20361.32
       SATURATED ZONE =         -12840.27         SATURATED ZONE =          -1988.86

 OVERALL BUDGET ERROR =           -395.61           BUDGET ERROR =            -60.59


  PERCENT DISCREPANCY =             -0.35    PERCENT DISCREPANCY =             -0.38



1
 SUMMARY VOLUMETRIC BUDGET FOR GSFLOW 
 DATE: 10 14 1980              CUMULATIVE TIME STEP:      14
 MODFLOW STRESS PERIOD      2     CURRENT TIME STEP:      14     ITERATIONS:       6

 -----------------------------------------------------------------------------------

   CUMULATIVE VOLUMES               L**3   RATES FOR THIS TIME STEP           L**3/T
   ------------------                      ------------------------

                                     IN                                         IN
                                     --                                         --
        PRECIPITATION =         650780.39          PRECIPITATION =         164754.68
           STREAMFLOW =                               STREAMFLOW =                  
     GW BOUNDARY FLOW =                         GW BOUNDARY FLOW =                  


                                    OUT                                        OUT
                                    ---                                        ---
   EVAPOTRANSPIRATION =         162751.94     EVAPOTRANSPIRATION =          11476.73
           STREAMFLOW =          94486.15             STREAMFLOW =           7727.16
     GW BOUNDARY FLOW =           9082.96       GW BOUNDARY FLOW =            648.94

   INFLOWS - OUTFLOWS =         384459.35     INFLOWS - OUTFLOWS =         144901.85
             --------                                   --------

 TOTAL STORAGE CHANGE =         385298.12         STORAGE CHANGE =         144963.28
       --------------                             --------------
         LAND SURFACE =         183752.11           LAND SURFACE =         130549.80
            SOIL ZONE =         513611.58              SOIL ZONE =          36443.87
     UNSATURATED ZONE =        -284496.87       UNSATURATED ZONE =         -19624.98
       SATURATED ZONE =         -27568.70         SATURATED ZONE =          -2405.41

 OVERALL BUDGET ERROR =           -838.77           BUDGET ERROR =            -61.43


  PERCENT DISCREPANCY =             -0.13    PERCENT DISCREPANCY =             -0.04



1
 SUMMARY VOLUMETRIC BUDGET FOR GSFLOW 
 DATE: 10 21 1980              CUMULATIVE TIME STEP:      21
 MODFLOW STRESS PERIOD      2     CURRENT TIME STEP:      21     ITERATIONS:       6

 -----------------------------------------------------------------------------------

   CUMULATIVE VOLUMES               L**3   RATES FOR THIS TIME STEP           L**3/T
   ------------------                      ------------------------

                                     IN                                         IN
                                     --                                         --
        PRECIPITATION =         733156.23          PRECIPITATION =                  
           STREAMFLOW =                               STREAMFLOW =                  
     GW BOUNDARY FLOW =                         GW BOUNDARY FLOW =                  


                                    OUT                                        OUT
                                    ---                                        ---
   EVAPOTRANSPIRATION =         432974.52     EVAPOTRANSPIRATION =          44099.03
           STREAMFLOW =         145880.59             STREAMFLOW =           6877.89
     GW BOUNDARY FLOW =          13624.72       GW BOUNDARY FLOW =            648.74

   INFLOWS - OUTFLOWS =         140676.40     INFLOWS - OUTFLOWS =         -51625.65
             --------                                   --------

 TOTAL STORAGE CHANGE =         141966.04         STORAGE CHANGE =         -51555.12
       --------------                             --------------
         LAND SURFACE =                             LAND SURFACE =                  
            SOIL ZONE =         607225.50              SOIL ZONE =         -29694.45
     UNSATURATED ZONE =        -418693.27       UNSATURATED ZONE =         -18825.45
       SATURATED ZONE =         -46566.19         SATURATED ZONE =          -3035.23

 OVERALL BUDGET ERROR =          -1289.63           BUDGET ERROR =            -70.53


  PERCENT DISCREPANCY =             -0.18    PERCENT DISCREPANCY =             -0.14



1
 SUMMARY VOLUMETRIC BUDGET FOR GSFLOW 
 DATE: 10 28 1980              CUMULATIVE TIME STEP:      28
 MODFLOW STRESS PERIOD      2     CURRENT TIME STEP:      28     ITERATIONS:       6

 -----------------------------------------------------------------------------------

   CUMULATIVE VOLUMES               L**3   RATES FOR THIS TIME STEP           L**3/T
   ------------------                      ------------------------

                                     IN                                         IN
                                     --                                         --
        PRECIPITATION =        1070899.96          PRECIPITATION =                  
           STREAMFLOW =                               STREAMFLOW =                  
     GW BOUNDARY FLOW =                         GW BOUNDARY FLOW =                  


                                    OUT                                        OUT
                                    ---                                        ---
   EVAPOTRANSPIRATION =         623789.28     EVAPOTRANSPIRATION =          24681.32
           STREAMFLOW =         199257.96             STREAMFLOW =           7737.98
     GW BOUNDARY FLOW =          18165.84       GW BOUNDARY FLOW =            648.77

   INFLOWS - OUTFLOWS =         229686.88     INFLOWS - OUTFLOWS =         -33068.08
             --------                                   --------

 TOTAL STORAGE CHANGE =         231489.65         STORAGE CHANGE =         -32990.88
       --------------                             --------------
         LAND SURFACE =          20573.21           LAND SURFACE =         -29874.96
            SOIL ZONE =         827661.54              SOIL ZONE =          18415.55
     UNSATURATED ZONE =        -547435.72       UNSATURATED ZONE =         -18024.90
       SATURATED ZONE =         -69309.37         SATURATED ZONE =          -3506.57

 OVERALL BUDGET ERROR =          -1802.78           BUDGET ERROR =            -77.20


  PERCENT DISCREPANCY =             -0.17    PERCENT DISCREPANCY =             -0.23



1
 SUMMARY VOLUMETRIC BUDGET FOR GSFLOW 
 DATE: 11 04 1980              CUMULATIVE TIME STEP:      35
 MODFLOW STRESS PERIOD      2     CURRENT TIME STEP:      35     ITERATIONS:      10

 -----------------------------------------------------------------------------------

   CUMULATIVE VOLUMES               L**3   RATES FOR THIS TIME STEP           L**3/T
   ------------------                      ------------------------

                                     IN                                         IN
                                     --                                         --
        PRECIPITATION =        1070899.96          PRECIPITATION =                  
           STREAMFLOW =                               STREAMFLOW =                  
     GW BOUNDARY FLOW =                         GW BOUNDARY FLOW =                  


                                    OUT                                        OUT
                                    ---                                        ---
   EVAPOTRANSPIRATION =         962089.64     EVAPOTRANSPIRATION =          43314.55
           STREAMFLOW =         250155.07             STREAMFLOW =           6825.98
     GW BOUNDARY FLOW =          22706.59       GW BOUNDARY FLOW =            648.61

   INFLOWS - OUTFLOWS =        -164051.34     INFLOWS - OUTFLOWS =         -50789.13
             --------                                   --------

 TOTAL STORAGE CHANGE =        -161858.26         STORAGE CHANGE =         -50746.94
       --------------                             --------------
         LAND SURFACE =                             LAND SURFACE =                  
            SOIL ZONE =         605866.95              SOIL ZONE =         -29187.27
     UNSATURATED ZONE =        -670901.48       UNSATURATED ZONE =         -17352.14
       SATURATED ZONE =         -96823.73         SATURATED ZONE =          -4207.53

 OVERALL BUDGET ERROR =          -2193.08           BUDGET ERROR =            -42.20


  PERCENT DISCREPANCY =             -0.18    PERCENT DISCREPANCY =             -0.08



1
 SUMMARY VOLUMETRIC BUDGET FOR GSFLOW 
 DATE: 11 11 1980              CUMULATIVE TIME STEP:      42
 MODFLOW STRESS PERIOD      2     CURRENT TIME STEP:      42     ITERATIONS:       7

 -----------------------------------------------------------------------------------

   CUMULATIVE VOLUMES               L**3   RATES FOR THIS TIME STEP           L**3/T
   ------------------                      ------------------------

                                     IN                                         IN
                                     --                                         --
        PRECIPITATION =        1573759.34          PRECIPITATION =         255182.10
           STREAMFLOW =                               STREAMFLOW =                  
     GW BOUNDARY FLOW =                         GW BOUNDARY FLOW =                  


                                    OUT                                        OUT
                                    ---                                        ---
   EVAPOTRANSPIRATION =        1193969.69     EVAPOTRANSPIRATION =          17062.52
           STREAMFLOW =         305327.32             STREAMFLOW =          10509.83
     GW BOUNDARY FLOW =          27247.18       GW BOUNDARY FLOW =            648.82

   INFLOWS - OUTFLOWS =          47215.15     INFLOWS - OUTFLOWS =         226960.93
             --------                                   --------

 TOTAL STORAGE CHANGE =          49875.64         STORAGE CHANGE =         227022.77
       --------------                             --------------
         LAND SURFACE =          76836.74           LAND SURFACE =          76836.74
            SOIL ZONE =         889556.63              SOIL ZONE =         170950.48
     UNSATURATED ZONE =        -789537.19       UNSATURATED ZONE =         -16596.63
       SATURATED ZONE =        -126980.54         SATURATED ZONE =          -4167.83

 OVERALL BUDGET ERROR =          -2660.50           BUDGET ERROR =            -61.84


  PERCENT DISCREPANCY =             -0.17    PERCENT DISCREPANCY =             -0.02



1
 SUMMARY VOLUMETRIC BUDGET FOR GSFLOW 
 DATE: 11 18 1980              CUMULATIVE TIME STEP:      49
 MODFLOW STRESS PERIOD      2     CURRENT TIME STEP:      49     ITERATIONS:       6

 -----------------------------------------------------------------------------------

   CUMULATIVE VOLUMES               L**3   RATES FOR THIS TIME STEP           L**3/T
   ------------------                      ------------------------

                                     IN                                         IN
                                     --                                         --
        PRECIPITATION =        1573759.34          PRECIPITATION =                  
           STREAMFLOW =                               STREAMFLOW =                  
     GW BOUNDARY FLOW =                         GW BOUNDARY FLOW =                  


                                    OUT                                        OUT
                                    ---                                        ---
   EVAPOTRANSPIRATION =        1290970.25     EVAPOTRANSPIRATION =          23195.40
           STREAMFLOW =         365815.85             STREAMFLOW =           8947.75
     GW BOUNDARY FLOW =          31788.77       GW BOUNDARY FLOW =            648.81

   INFLOWS - OUTFLOWS =        -114815.52     INFLOWS - OUTFLOWS =         -32791.97
             --------                                   --------

 TOTAL STORAGE CHANGE =        -111671.52         STORAGE CHANGE =         -32709.49
       --------------                             --------------
         LAND SURFACE =           5398.38           LAND SURFACE =          -7586.22
            SOIL ZONE =         946600.96              SOIL ZONE =          -4261.94
     UNSATURATED ZONE =        -903520.61       UNSATURATED ZONE =         -16026.27
       SATURATED ZONE =        -160150.25         SATURATED ZONE =          -4835.06

 OVERALL BUDGET ERROR =          -3144.00           BUDGET ERROR =            -82.48


  PERCENT DISCREPANCY =             -0.19    PERCENT DISCREPANCY =             -0.25



1
 SUMMARY VOLUMETRIC BUDGET FOR GSFLOW 
 DATE: 11 25 1980              CUMULATIVE TIME STEP:      56
 MODFLOW STRESS PERIOD      2     CURRENT TIME STEP:      56     ITERATIONS:       7

 -----------------------------------------------------------------------------------

   CUMULATIVE VOLUMES               L**3   RATES FOR THIS TIME STEP           L**3/T
   ------------------                      ------------------------

                                     IN                                         IN
                                     --                                         --
        PRECIPITATION =        1648813.76          PRECIPITATION =                  
           STREAMFLOW =                               STREAMFLOW =                  
     GW BOUNDARY FLOW =                         GW BOUNDARY FLOW =                  


                                    OUT                                        OUT
                                    ---                                        ---
   EVAPOTRANSPIRATION =        1380032.40     EVAPOTRANSPIRATION =           9280.00
           STREAMFLOW =         428889.79             STREAMFLOW =           9138.99
     GW BOUNDARY FLOW =          36330.51       GW BOUNDARY FLOW =            648.83

   INFLOWS - OUTFLOWS =        -196438.94     INFLOWS - OUTFLOWS =         -19067.82
             --------                                   --------

 TOTAL STORAGE CHANGE =        -192690.42         STORAGE CHANGE =         -19002.26
       --------------                             --------------
         LAND SURFACE =          53187.47           LAND SURFACE =          -9260.11
            SOIL ZONE =         963858.81              SOIL ZONE =          11117.09
     UNSATURATED ZONE =       -1013222.54       UNSATURATED ZONE =         -15403.52
       SATURATED ZONE =        -196514.15         SATURATED ZONE =          -5455.73

 OVERALL BUDGET ERROR =          -3748.52           BUDGET ERROR =            -65.56


  PERCENT DISCREPANCY =             -0.20    PERCENT DISCREPANCY =             -0.34



1
 SUMMARY VOLUMETRIC BUDGET FOR GSFLOW 
 DATE: 12 02 1980              CUMULATIVE TIME STEP:      63
 MODFLOW STRESS PERIOD      2     CURRENT TIME STEP:      63     ITERATIONS:       7

 -----------------------------------------------------------------------------------

   CUMULATIVE VOLUMES               L**3   RATES FOR THIS TIME STEP           L**3/T
   ------------------                      ------------------------

                                     IN                                         IN
                                     --                                         --
        PRECIPITATION =        2076620.74          PRECIPITATION =                  
           STREAMFLOW =                               STREAMFLOW =                  
     GW BOUNDARY FLOW =                         GW BOUNDARY FLOW =                  


                                    OUT                                        OUT
                                    ---                                        ---
   EVAPOTRANSPIRATION =        1590647.89     EVAPOTRANSPIRATION =          35186.72
           STREAMFLOW =         502983.38             STREAMFLOW =          12898.04
     GW BOUNDARY FLOW =          40873.22       GW BOUNDARY FLOW =            649.19

   INFLOWS - OUTFLOWS =         -57883.75     INFLOWS - OUTFLOWS =         -48733.94
             --------                                   --------

 TOTAL STORAGE CHANGE =         -53640.52         STORAGE CHANGE =         -48677.02
       --------------                             --------------
         LAND SURFACE =         139443.43           LAND SURFACE =         -82002.01
            SOIL ZONE =        1158051.26              SOIL ZONE =          52036.00
     UNSATURATED ZONE =       -1116581.41       UNSATURATED ZONE =         -13684.19
       SATURATED ZONE =        -234553.80         SATURATED ZONE =          -5026.82

 OVERALL BUDGET ERROR =          -4243.23           BUDGET ERROR =            -56.93


  PERCENT DISCREPANCY =             -0.20    PERCENT DISCREPANCY =             -0.12



1
 SUMMARY VOLUMETRIC BUDGET FOR GSFLOW 
 DATE: 12 09 1980              CUMULATIVE TIME STEP:      70
 MODFLOW STRESS PERIOD      2     CURRENT TIME STEP:      70     ITERATIONS:       7

 -----------------------------------------------------------------------------------

   CUMULATIVE VOLUMES               L**3   RATES FOR THIS TIME STEP           L**3/T
   ------------------                      ------------------------

                                     IN                                         IN
                                     --                                         --
        PRECIPITATION =        4284363.13          PRECIPITATION =                  
           STREAMFLOW =                               STREAMFLOW =                  
     GW BOUNDARY FLOW =                         GW BOUNDARY FLOW =                  


                                    OUT                                        OUT
                                    ---                                        ---
   EVAPOTRANSPIRATION =        1617203.38     EVAPOTRANSPIRATION =           4180.71
           STREAMFLOW =         588542.74             STREAMFLOW =          12698.50
     GW BOUNDARY FLOW =          45418.22       GW BOUNDARY FLOW =            649.39

   INFLOWS - OUTFLOWS =        2033198.79     INFLOWS - OUTFLOWS =         -17528.60
             --------                                   --------

 TOTAL STORAGE CHANGE =        2037900.87         STORAGE CHANGE =         -17459.42
       --------------                             --------------
         LAND SURFACE =        2319000.21           LAND SURFACE =          -4180.71
            SOIL ZONE =        1209360.99              SOIL ZONE =           6887.46
     UNSATURATED ZONE =       -1216111.58       UNSATURATED ZONE =         -14239.88
       SATURATED ZONE =        -274348.75         SATURATED ZONE =          -5926.28

 OVERALL BUDGET ERROR =          -4702.09           BUDGET ERROR =            -69.18


  PERCENT DISCREPANCY =             -0.11    PERCENT DISCREPANCY =             -0.40



1
 SUMMARY VOLUMETRIC BUDGET FOR GSFLOW 
 DATE: 12 16 1980              CUMULATIVE TIME STEP:      77
 MODFLOW STRESS PERIOD      2     CURRENT TIME STEP:      77     ITERATIONS:       7

 -----------------------------------------------------------------------------------

   CUMULATIVE VOLUMES               L**3   RATES FOR THIS TIME STEP           L**3/T
   ------------------                      ------------------------

                                     IN                                         IN
                                     --                                         --
        PRECIPITATION =        4284363.13          PRECIPITATION =                  
           STREAMFLOW =                               STREAMFLOW =                  
     GW BOUNDARY FLOW =                         GW BOUNDARY FLOW =                  


                                    OUT                                        OUT
                                    ---                                        ---
   EVAPOTRANSPIRATION =        1768299.17     EVAPOTRANSPIRATION =          35036.08
           STREAMFLOW =         695504.83             STREAMFLOW =          22579.40
     GW BOUNDARY FLOW =          49965.13       GW BOUNDARY FLOW =            649.99

   INFLOWS - OUTFLOWS =        1770594.00     INFLOWS - OUTFLOWS =         -58265.47
             --------                                   --------

 TOTAL STORAGE CHANGE =        1775726.35         STORAGE CHANGE =         -58201.70
       --------------                             --------------
         LAND SURFACE =        1981773.89           LAND SURFACE =        -138704.97
            SOIL ZONE =        1416265.92              SOIL ZONE =          94789.06
     UNSATURATED ZONE =       -1307301.26       UNSATURATED ZONE =          -9696.78
       SATURATED ZONE =        -315012.20         SATURATED ZONE =          -4589.01

 OVERALL BUDGET ERROR =          -5132.35           BUDGET ERROR =            -63.77


  PERCENT DISCREPANCY =             -0.12    PERCENT DISCREPANCY =             -0.11



1
 SUMMARY VOLUMETRIC BUDGET FOR GSFLOW 
 DATE: 12 23 1980              CUMULATIVE TIME STEP:      84
 MODFLOW STRESS PERIOD      2     CURRENT TIME STEP:      84     ITERATIONS:       9

 -----------------------------------------------------------------------------------

   CUMULATIVE VOLUMES               L**3   RATES FOR THIS TIME STEP           L**3/T
   ------------------                      ------------------------

                                     IN                                         IN
                                     --                                         --
        PRECIPITATION =        4516755.31          PRECIPITATION =                  
           STREAMFLOW =                               STREAMFLOW =                  
     GW BOUNDARY FLOW =                         GW BOUNDARY FLOW =                  


                                    OUT                                        OUT
                                    ---                                        ---
   EVAPOTRANSPIRATION =        1971009.45     EVAPOTRANSPIRATION =          34714.82
           STREAMFLOW =         914867.42             STREAMFLOW =          30082.06
     GW BOUNDARY FLOW =          54524.36       GW BOUNDARY FLOW =            651.84

   INFLOWS - OUTFLOWS =        1576354.08     INFLOWS - OUTFLOWS =         -65448.73
             --------                                   --------

 TOTAL STORAGE CHANGE =        1581746.03         STORAGE CHANGE =         -65414.60
       --------------                             --------------
         LAND SURFACE =        1331470.56           LAND SURFACE =         -52543.77
            SOIL ZONE =        1948671.00              SOIL ZONE =          -1694.39
     UNSATURATED ZONE =       -1354702.92       UNSATURATED ZONE =          -6624.59
       SATURATED ZONE =        -343692.61         SATURATED ZONE =          -4551.85

 OVERALL BUDGET ERROR =          -5391.95           BUDGET ERROR =            -34.13


  PERCENT DISCREPANCY =             -0.12    PERCENT DISCREPANCY =             -0.05



1
 SUMMARY VOLUMETRIC BUDGET FOR GSFLOW 
 DATE: 12 30 1980              CUMULATIVE TIME STEP:      91
 MODFLOW STRESS PERIOD      2     CURRENT TIME STEP:      91     ITERATIONS:      10

 -----------------------------------------------------------------------------------

   CUMULATIVE VOLUMES               L**3   RATES FOR THIS TIME STEP           L**3/T
   ------------------                      ------------------------

                                     IN                                         IN
                                     --                                         --
        PRECIPITATION =        4516755.31          PRECIPITATION =                  
           STREAMFLOW =                               STREAMFLOW =                  
     GW BOUNDARY FLOW =                         GW BOUNDARY FLOW =                  


                                    OUT                                        OUT
                                    ---                                        ---
   EVAPOTRANSPIRATION =        2293572.00     EVAPOTRANSPIRATION =          42509.72
           STREAMFLOW =        1159781.82             STREAMFLOW =          27625.17
     GW BOUNDARY FLOW =          59090.80       GW BOUNDARY FLOW =            652.37

   INFLOWS - OUTFLOWS =        1004310.70     INFLOWS - OUTFLOWS =         -70787.25
             --------                                   --------

 TOTAL STORAGE CHANGE =        1009845.88         STORAGE CHANGE =         -70773.30
       --------------                             --------------
         LAND SURFACE =         529446.97           LAND SURFACE =         -41358.17
            SOIL ZONE =        2220834.79              SOIL ZONE =         -21326.61
     UNSATURATED ZONE =       -1369996.40       UNSATURATED ZONE =          -3630.79
       SATURATED ZONE =        -370439.48         SATURATED ZONE =          -4457.73

 OVERALL BUDGET ERROR =          -5535.18           BUDGET ERROR =            -13.95


  PERCENT DISCREPANCY =             -0.12    PERCENT DISCREPANCY =             -0.02



1
 SUMMARY VOLUMETRIC BUDGET FOR GSFLOW 
 DATE: 01 06 1981              CUMULATIVE TIME STEP:      98
 MODFLOW STRESS PERIOD      2     CURRENT TIME STEP:      98     ITERATIONS:       8

 -----------------------------------------------------------------------------------

   CUMULATIVE VOLUMES               L**3   RATES FOR THIS TIME STEP           L**3/T
   ------------------                      ------------------------

                                     IN                                         IN
                                     --                                         --
        PRECIPITATION =        5004445.82          PRECIPITATION =                  
           STREAMFLOW =                               STREAMFLOW =                  
     GW BOUNDARY FLOW =                         GW BOUNDARY FLOW =                  


                                    OUT                                        OUT
                                    ---                                        ---
   EVAPOTRANSPIRATION =        2505988.78     EVAPOTRANSPIRATION =          21276.31
           STREAMFLOW =        1310048.97             STREAMFLOW =          20286.54
     GW BOUNDARY FLOW =          63651.75       GW BOUNDARY FLOW =            651.10

   INFLOWS - OUTFLOWS =        1124756.32     INFLOWS - OUTFLOWS =         -42213.95
             --------                                   --------

 TOTAL STORAGE CHANGE =        1130439.79         STORAGE CHANGE =         -42180.84
       --------------                             --------------
         LAND SURFACE =         783105.33           LAND SURFACE =         -28174.19
            SOIL ZONE =        2194681.90              SOIL ZONE =           3303.28
     UNSATURATED ZONE =       -1437399.41       UNSATURATED ZONE =         -11346.70
       SATURATED ZONE =        -409948.03         SATURATED ZONE =          -5963.24

 OVERALL BUDGET ERROR =          -5683.47           BUDGET ERROR =            -33.11


  PERCENT DISCREPANCY =             -0.11    PERCENT DISCREPANCY =             -0.08



1
 SUMMARY VOLUMETRIC BUDGET FOR GSFLOW 
 DATE: 01 13 1981              CUMULATIVE TIME STEP:     105
 MODFLOW STRESS PERIOD      2     CURRENT TIME STEP:     105     ITERATIONS:       7

 -----------------------------------------------------------------------------------

   CUMULATIVE VOLUMES               L**3   RATES FOR THIS TIME STEP           L**3/T
   ------------------                      ------------------------

                                     IN                                         IN
                                     --                                         --
        PRECIPITATION =        5004445.82          PRECIPITATION =                  
           STREAMFLOW =                               STREAMFLOW =                  
     GW BOUNDARY FLOW =                         GW BOUNDARY FLOW =                  


                                    OUT                                        OUT
                                    ---                                        ---
   EVAPOTRANSPIRATION =        2702986.51     EVAPOTRANSPIRATION =          40639.08
           STREAMFLOW =        1457276.46             STREAMFLOW =          20406.46
     GW BOUNDARY FLOW =          68208.41       GW BOUNDARY FLOW =            650.83

   INFLOWS - OUTFLOWS =         775974.44     INFLOWS - OUTFLOWS =         -61696.37
             --------                                   --------

 TOTAL STORAGE CHANGE =         781994.98         STORAGE CHANGE =         -61645.88
       --------------                             --------------
         LAND SURFACE =         556998.15           LAND SURFACE =         -38369.48
            SOIL ZONE =        2181987.07              SOIL ZONE =          -7985.50
     UNSATURATED ZONE =       -1503169.69       UNSATURATED ZONE =          -8735.19
       SATURATED ZONE =        -453820.55         SATURATED ZONE =          -6555.70

 OVERALL BUDGET ERROR =          -6020.54           BUDGET ERROR =            -50.49


  PERCENT DISCREPANCY =             -0.12    PERCENT DISCREPANCY =             -0.08



1
 SUMMARY VOLUMETRIC BUDGET FOR GSFLOW 
 DATE: 01 20 1981              CUMULATIVE TIME STEP:     112
 MODFLOW STRESS PERIOD      2     CURRENT TIME STEP:     112     ITERATIONS:       8

 -----------------------------------------------------------------------------------

   CUMULATIVE VOLUMES               L**3   RATES FOR THIS TIME STEP           L**3/T
   ------------------                      ------------------------

                                     IN                                         IN
                                     --                                         --
        PRECIPITATION =        5170468.48          PRECIPITATION =          41503.16
           STREAMFLOW =                               STREAMFLOW =                  
     GW BOUNDARY FLOW =                         GW BOUNDARY FLOW =                  


                                    OUT                                        OUT
                                    ---                                        ---
   EVAPOTRANSPIRATION =        2994318.12     EVAPOTRANSPIRATION =          53689.72
           STREAMFLOW =        1598705.74             STREAMFLOW =          19728.99
     GW BOUNDARY FLOW =          72763.12       GW BOUNDARY FLOW =            650.59

   INFLOWS - OUTFLOWS =         504681.51     INFLOWS - OUTFLOWS =         -32566.14
             --------                                   --------

 TOTAL STORAGE CHANGE =         510982.38         STORAGE CHANGE =         -32530.83
       --------------                             --------------
         LAND SURFACE =         392560.19           LAND SURFACE =           1262.98
            SOIL ZONE =        2158054.53              SOIL ZONE =         -24323.45
     UNSATURATED ZONE =       -1539210.95       UNSATURATED ZONE =          -2612.59
       SATURATED ZONE =        -500421.39         SATURATED ZONE =          -6857.77

 OVERALL BUDGET ERROR =          -6300.88           BUDGET ERROR =            -35.31


  PERCENT DISCREPANCY =             -0.12    PERCENT DISCREPANCY =             -0.05



1
 SUMMARY VOLUMETRIC BUDGET FOR GSFLOW 
 DATE: 01 27 1981              CUMULATIVE TIME STEP:     119
 MODFLOW STRESS PERIOD      2     CURRENT TIME STEP:     119     ITERATIONS:       8

 -----------------------------------------------------------------------------------

   CUMULATIVE VOLUMES               L**3   RATES FOR THIS TIME STEP           L**3/T
   ------------------                      ------------------------

                                     IN                                         IN
                                     --                                         --
        PRECIPITATION =        8646542.90          PRECIPITATION =        2936504.96
           STREAMFLOW =                               STREAMFLOW =                  
     GW BOUNDARY FLOW =                         GW BOUNDARY FLOW =                  


                                    OUT                                        OUT
                                    ---                                        ---
   EVAPOTRANSPIRATION =        3224802.91     EVAPOTRANSPIRATION =          12593.32
           STREAMFLOW =        1734094.91             STREAMFLOW =          17943.94
     GW BOUNDARY FLOW =          77316.41       GW BOUNDARY FLOW =            650.32

   INFLOWS - OUTFLOWS =        3610328.67     INFLOWS - OUTFLOWS =        2905317.39
             --------                                   --------

 TOTAL STORAGE CHANGE =        3616789.68         STORAGE CHANGE =        2905343.54
       --------------                             --------------
         LAND SURFACE =        3531533.77           LAND SURFACE =        2923911.72
            SOIL ZONE =        2179850.20              SOIL ZONE =          -4865.18
     UNSATURATED ZONE =       -1547305.79       UNSATURATED ZONE =          -6513.46
       SATURATED ZONE =        -547288.51         SATURATED ZONE =          -7189.54

 OVERALL BUDGET ERROR =          -6461.00           BUDGET ERROR =            -26.15


  PERCENT DISCREPANCY =             -0.07    PERCENT DISCREPANCY =             -0.00



1
 SUMMARY VOLUMETRIC BUDGET FOR GSFLOW 
 DATE: 02 03 1981              CUMULATIVE TIME STEP:     126
 MODFLOW STRESS PERIOD      2     CURRENT TIME STEP:     126     ITERATIONS:       9

 -----------------------------------------------------------------------------------

   CUMULATIVE VOLUMES               L**3   RATES FOR THIS TIME STEP           L**3/T
   ------------------                      ------------------------

                                     IN                                         IN
                                     --                                         --
        PRECIPITATION =        1.1739D+07          PRECIPITATION =                  
           STREAMFLOW =                               STREAMFLOW =                  
     GW BOUNDARY FLOW =                         GW BOUNDARY FLOW =                  


                                    OUT                                        OUT
                                    ---                                        ---
   EVAPOTRANSPIRATION =        3262151.39     EVAPOTRANSPIRATION =           8130.85
           STREAMFLOW =        1858174.45             STREAMFLOW =          17764.42
     GW BOUNDARY FLOW =          81867.97       GW BOUNDARY FLOW =            650.21

   INFLOWS - OUTFLOWS =        6536503.97     INFLOWS - OUTFLOWS =         -26545.48
             --------                                   --------

 TOTAL STORAGE CHANGE =        6543222.03         STORAGE CHANGE =         -26523.79
       --------------                             --------------
         LAND SURFACE =        6586340.18           LAND SURFACE =          -8130.85
            SOIL ZONE =        2176000.16              SOIL ZONE =            715.13
     UNSATURATED ZONE =       -1618384.98       UNSATURATED ZONE =         -11202.70
       SATURATED ZONE =        -600733.33         SATURATED ZONE =          -7905.37

 OVERALL BUDGET ERROR =          -6718.07           BUDGET ERROR =            -21.70


  PERCENT DISCREPANCY =             -0.06    PERCENT DISCREPANCY =             -0.08



1
 SUMMARY VOLUMETRIC BUDGET FOR GSFLOW 
 DATE: 02 10 1981              CUMULATIVE TIME STEP:     133
 MODFLOW STRESS PERIOD      2     CURRENT TIME STEP:     133     ITERATIONS:       8

 -----------------------------------------------------------------------------------

   CUMULATIVE VOLUMES               L**3   RATES FOR THIS TIME STEP           L**3/T
   ------------------                      ------------------------

                                     IN                                         IN
                                     --                                         --
        PRECIPITATION =        1.1838D+07          PRECIPITATION =                  
           STREAMFLOW =                               STREAMFLOW =                  
     GW BOUNDARY FLOW =                         GW BOUNDARY FLOW =                  


                                    OUT                                        OUT
                                    ---                                        ---
   EVAPOTRANSPIRATION =        3395953.74     EVAPOTRANSPIRATION =          34657.17
           STREAMFLOW =        1983244.13             STREAMFLOW =          17924.29
     GW BOUNDARY FLOW =          86419.50       GW BOUNDARY FLOW =            650.21

   INFLOWS - OUTFLOWS =        6372645.87     INFLOWS - OUTFLOWS =         -53231.68
             --------                                   --------

 TOTAL STORAGE CHANGE =        6379619.30         STORAGE CHANGE =         -53195.20
       --------------                             --------------
         LAND SURFACE =        6552103.29           LAND SURFACE =         -34657.17
            SOIL ZONE =        2180949.28              SOIL ZONE =            615.07
     UNSATURATED ZONE =       -1695098.66       UNSATURATED ZONE =         -10653.11
       SATURATED ZONE =        -658334.61         SATURATED ZONE =          -8499.98

 OVERALL BUDGET ERROR =          -6973.44           BUDGET ERROR =            -36.48


  PERCENT DISCREPANCY =             -0.06    PERCENT DISCREPANCY =             -0.07



1
 SUMMARY VOLUMETRIC BUDGET FOR GSFLOW 
 DATE: 02 17 1981              CUMULATIVE TIME STEP:     140
 MODFLOW STRESS PERIOD      2     CURRENT TIME STEP:     140     ITERATIONS:      14

 -----------------------------------------------------------------------------------

   CUMULATIVE VOLUMES               L**3   RATES FOR THIS TIME STEP           L**3/T
   ------------------                      ------------------------

                                     IN                                         IN
                                     --                                         --
        PRECIPITATION =        1.2765D+07          PRECIPITATION =          68928.68
           STREAMFLOW =                               STREAMFLOW =                  
     GW BOUNDARY FLOW =                         GW BOUNDARY FLOW =                  


                                    OUT                                        OUT
                                    ---                                        ---
   EVAPOTRANSPIRATION =        3739154.10     EVAPOTRANSPIRATION =          68126.97
           STREAMFLOW =        2507226.91             STREAMFLOW =         124815.30
     GW BOUNDARY FLOW =          90992.26       GW BOUNDARY FLOW =            656.72

   INFLOWS - OUTFLOWS =        6427607.40     INFLOWS - OUTFLOWS =        -124670.31
             --------                                   --------

 TOTAL STORAGE CHANGE =        6434813.39         STORAGE CHANGE =        -124665.59
       --------------                             --------------
         LAND SURFACE =        5604894.48           LAND SURFACE =        -287595.36
            SOIL ZONE =        2962774.62              SOIL ZONE =          82395.60
     UNSATURATED ZONE =       -1455520.07       UNSATURATED ZONE =          78467.49
       SATURATED ZONE =        -677335.63         SATURATED ZONE =           2066.69

 OVERALL BUDGET ERROR =          -7206.00           BUDGET ERROR =             -4.73


  PERCENT DISCREPANCY =             -0.06    PERCENT DISCREPANCY =             -0.00



1
 SUMMARY VOLUMETRIC BUDGET FOR GSFLOW 
 DATE: 02 24 1981              CUMULATIVE TIME STEP:     147
 MODFLOW STRESS PERIOD      2     CURRENT TIME STEP:     147     ITERATIONS:      14

 -----------------------------------------------------------------------------------

   CUMULATIVE VOLUMES               L**3   RATES FOR THIS TIME STEP           L**3/T
   ------------------                      ------------------------

                                     IN                                         IN
                                     --                                         --
        PRECIPITATION =        1.3179D+07          PRECIPITATION =         344647.71
           STREAMFLOW =                               STREAMFLOW =                  
     GW BOUNDARY FLOW =                         GW BOUNDARY FLOW =                  


                                    OUT                                        OUT
                                    ---                                        ---
   EVAPOTRANSPIRATION =        4088041.75     EVAPOTRANSPIRATION =          19832.91
           STREAMFLOW =        3094581.73             STREAMFLOW =          53170.65
     GW BOUNDARY FLOW =          95587.35       GW BOUNDARY FLOW =            655.43

   INFLOWS - OUTFLOWS =        5900347.63     INFLOWS - OUTFLOWS =         270988.72
             --------                                   --------

 TOTAL STORAGE CHANGE =        5907456.82         STORAGE CHANGE =         270965.91
       --------------                             --------------
         LAND SURFACE =        4925109.93           LAND SURFACE =         300251.60
            SOIL ZONE =        2710057.19              SOIL ZONE =         -63440.83
     UNSATURATED ZONE =       -1075266.30       UNSATURATED ZONE =          31295.32
       SATURATED ZONE =        -652444.00         SATURATED ZONE =           2859.82

 OVERALL BUDGET ERROR =          -7109.19           BUDGET ERROR =             22.81


  PERCENT DISCREPANCY =             -0.05    PERCENT DISCREPANCY =              0.01



1
 SUMMARY VOLUMETRIC BUDGET FOR GSFLOW 
 DATE: 03 03 1981              CUMULATIVE TIME STEP:     154
 MODFLOW STRESS PERIOD      2     CURRENT TIME STEP:     154     ITERATIONS:      11

 -----------------------------------------------------------------------------------

   CUMULATIVE VOLUMES               L**3   RATES FOR THIS TIME STEP           L**3/T
   ------------------                      ------------------------

                                     IN                                         IN
                                     --                                         --
        PRECIPITATION =        1.3447D+07          PRECIPITATION =                  
           STREAMFLOW =                               STREAMFLOW =                  
     GW BOUNDARY FLOW =                         GW BOUNDARY FLOW =                  


                                    OUT                                        OUT
                                    ---                                        ---
   EVAPOTRANSPIRATION =        4250535.50     EVAPOTRANSPIRATION =          44390.12
           STREAMFLOW =        3320742.83             STREAMFLOW =          27377.70
     GW BOUNDARY FLOW =         100160.83       GW BOUNDARY FLOW =            652.32

   INFLOWS - OUTFLOWS =        5775179.63     INFLOWS - OUTFLOWS =         -72420.13
             --------                                   --------

 TOTAL STORAGE CHANGE =        5782142.23         STORAGE CHANGE =         -72448.87
       --------------                             --------------
         LAND SURFACE =        5011972.62           LAND SURFACE =         -61722.17
            SOIL ZONE =        2487179.01              SOIL ZONE =           -186.42
     UNSATURATED ZONE =       -1061415.46       UNSATURATED ZONE =          -8368.13
       SATURATED ZONE =        -655593.94         SATURATED ZONE =          -2172.15

 OVERALL BUDGET ERROR =          -6962.61           BUDGET ERROR =             28.73


  PERCENT DISCREPANCY =             -0.05    PERCENT DISCREPANCY =              0.04



1
 SUMMARY VOLUMETRIC BUDGET FOR GSFLOW 
 DATE: 03 10 1981              CUMULATIVE TIME STEP:     161
 MODFLOW STRESS PERIOD      2     CURRENT TIME STEP:     161     ITERATIONS:      11

 -----------------------------------------------------------------------------------

   CUMULATIVE VOLUMES               L**3   RATES FOR THIS TIME STEP           L**3/T
   ------------------                      ------------------------

                                     IN                                         IN
                                     --                                         --
        PRECIPITATION =        1.3493D+07          PRECIPITATION =                  
           STREAMFLOW =                               STREAMFLOW =                  
     GW BOUNDARY FLOW =                         GW BOUNDARY FLOW =                  


                                    OUT                                        OUT
                                    ---                                        ---
   EVAPOTRANSPIRATION =        4564180.30     EVAPOTRANSPIRATION =          62828.56
           STREAMFLOW =        3554013.03             STREAMFLOW =          43688.68
     GW BOUNDARY FLOW =         104726.86       GW BOUNDARY FLOW =            652.96

   INFLOWS - OUTFLOWS =        5270034.33     INFLOWS - OUTFLOWS =        -107170.19
             --------                                   --------

 TOTAL STORAGE CHANGE =        5276882.40         STORAGE CHANGE =        -107189.33
       --------------                             --------------
         LAND SURFACE =        4369723.84           LAND SURFACE =        -162552.80
            SOIL ZONE =        2609740.46              SOIL ZONE =          33779.48
     UNSATURATED ZONE =       -1034252.40       UNSATURATED ZONE =          22008.11
       SATURATED ZONE =        -668329.50         SATURATED ZONE =           -424.12

 OVERALL BUDGET ERROR =          -6848.08           BUDGET ERROR =             19.14


  PERCENT DISCREPANCY =             -0.05    PERCENT DISCREPANCY =              0.02



1
 SUMMARY VOLUMETRIC BUDGET FOR GSFLOW 
 DATE: 03 17 1981              CUMULATIVE TIME STEP:     168
 MODFLOW STRESS PERIOD      2     CURRENT TIME STEP:     168     ITERATIONS:       9

 -----------------------------------------------------------------------------------

   CUMULATIVE VOLUMES               L**3   RATES FOR THIS TIME STEP           L**3/T
   ------------------                      ------------------------

                                     IN                                         IN
                                     --                                         --
        PRECIPITATION =        1.3745D+07          PRECIPITATION =                  
           STREAMFLOW =                               STREAMFLOW =                  
     GW BOUNDARY FLOW =                         GW BOUNDARY FLOW =                  


                                    OUT                                        OUT
                                    ---                                        ---
   EVAPOTRANSPIRATION =        4920409.75     EVAPOTRANSPIRATION =          39557.19
           STREAMFLOW =        3784342.51             STREAMFLOW =          24098.61
     GW BOUNDARY FLOW =         109294.66       GW BOUNDARY FLOW =            651.98

   INFLOWS - OUTFLOWS =        4930455.90     INFLOWS - OUTFLOWS =         -64307.78
             --------                                   --------

 TOTAL STORAGE CHANGE =        4937187.72         STORAGE CHANGE =         -64313.52
       --------------                             --------------
         LAND SURFACE =        4198119.47           LAND SURFACE =         -39206.25
            SOIL ZONE =        2433279.04              SOIL ZONE =          -5036.09
     UNSATURATED ZONE =       -1009889.03       UNSATURATED ZONE =         -15707.25
       SATURATED ZONE =        -684321.77         SATURATED ZONE =          -4363.94

 OVERALL BUDGET ERROR =          -6731.82           BUDGET ERROR =              5.75


  PERCENT DISCREPANCY =             -0.05    PERCENT DISCREPANCY =              0.01



1
 SUMMARY VOLUMETRIC BUDGET FOR GSFLOW 
 DATE: 03 24 1981              CUMULATIVE TIME STEP:     175
 MODFLOW STRESS PERIOD      2     CURRENT TIME STEP:     175     ITERATIONS:       9

 -----------------------------------------------------------------------------------

   CUMULATIVE VOLUMES               L**3   RATES FOR THIS TIME STEP           L**3/T
   ------------------                      ------------------------

                                     IN                                         IN
                                     --                                         --
        PRECIPITATION =        1.4367D+07          PRECIPITATION =                  
           STREAMFLOW =                               STREAMFLOW =                  
     GW BOUNDARY FLOW =                         GW BOUNDARY FLOW =                  


                                    OUT                                        OUT
                                    ---                                        ---
   EVAPOTRANSPIRATION =        5273482.19     EVAPOTRANSPIRATION =          85696.82
           STREAMFLOW =        3951700.82             STREAMFLOW =          25416.26
     GW BOUNDARY FLOW =         113854.67       GW BOUNDARY FLOW =            651.32

   INFLOWS - OUTFLOWS =        5027718.56     INFLOWS - OUTFLOWS =        -111764.40
             --------                                   --------

 TOTAL STORAGE CHANGE =        5034433.89         STORAGE CHANGE =        -111762.59
       --------------                             --------------
         LAND SURFACE =        4528959.93           LAND SURFACE =         -63588.50
            SOIL ZONE =        2318228.50              SOIL ZONE =         -36222.57
     UNSATURATED ZONE =       -1092465.65       UNSATURATED ZONE =          -6587.50
       SATURATED ZONE =        -720288.88         SATURATED ZONE =          -5364.01

 OVERALL BUDGET ERROR =          -6715.33           BUDGET ERROR =             -1.81


  PERCENT DISCREPANCY =             -0.05    PERCENT DISCREPANCY =             -0.00



1
 SUMMARY VOLUMETRIC BUDGET FOR GSFLOW 
 DATE: 03 31 1981              CUMULATIVE TIME STEP:     182
 MODFLOW STRESS PERIOD      2     CURRENT TIME STEP:     182     ITERATIONS:      12

 -----------------------------------------------------------------------------------

   CUMULATIVE VOLUMES               L**3   RATES FOR THIS TIME STEP           L**3/T
   ------------------                      ------------------------

                                     IN                                         IN
                                     --                                         --
        PRECIPITATION =        1.5777D+07          PRECIPITATION =                  
           STREAMFLOW =                               STREAMFLOW =                  
     GW BOUNDARY FLOW =                         GW BOUNDARY FLOW =                  


                                    OUT                                        OUT
                                    ---                                        ---
   EVAPOTRANSPIRATION =        5698991.54     EVAPOTRANSPIRATION =          55421.24
           STREAMFLOW =        4403780.21             STREAMFLOW =          33571.43
     GW BOUNDARY FLOW =         118433.50       GW BOUNDARY FLOW =            653.21

   INFLOWS - OUTFLOWS =        5555560.93     INFLOWS - OUTFLOWS =         -89645.87
             --------                                   --------

 TOTAL STORAGE CHANGE =        5562167.21         STORAGE CHANGE =         -89670.01
       --------------                             --------------
         LAND SURFACE =        4697103.43           LAND SURFACE =         -55743.36
            SOIL ZONE =        2494681.70              SOIL ZONE =         -31856.36
     UNSATURATED ZONE =        -907971.07       UNSATURATED ZONE =           -185.98
       SATURATED ZONE =        -721646.85         SATURATED ZONE =          -1884.32

 OVERALL BUDGET ERROR =          -6606.28           BUDGET ERROR =             24.14


  PERCENT DISCREPANCY =             -0.04    PERCENT DISCREPANCY =              0.03



1
 SUMMARY VOLUMETRIC BUDGET FOR GSFLOW 
 DATE: 04 07 1981              CUMULATIVE TIME STEP:     189
 MODFLOW STRESS PERIOD      2     CURRENT TIME STEP:     189     ITERATIONS:      10

 -----------------------------------------------------------------------------------

   CUMULATIVE VOLUMES               L**3   RATES FOR THIS TIME STEP           L**3/T
   ------------------                      ------------------------

                                     IN                                         IN
                                     --                                         --
        PRECIPITATION =        1.6121D+07          PRECIPITATION =                  
           STREAMFLOW =                               STREAMFLOW =                  
     GW BOUNDARY FLOW =                         GW BOUNDARY FLOW =                  


                                    OUT                                        OUT
                                    ---                                        ---
   EVAPOTRANSPIRATION =        6344596.13     EVAPOTRANSPIRATION =         106275.95
           STREAMFLOW =        4701337.40             STREAMFLOW =          42354.05
     GW BOUNDARY FLOW =         123007.01       GW BOUNDARY FLOW =            653.61

   INFLOWS - OUTFLOWS =        4952542.61     INFLOWS - OUTFLOWS =        -149283.60
             --------                                   --------

 TOTAL STORAGE CHANGE =        4959005.15         STORAGE CHANGE =        -149310.99
       --------------                             --------------
         LAND SURFACE =        4078016.32           LAND SURFACE =        -145758.59
            SOIL ZONE =        2453555.01              SOIL ZONE =         -13406.32
     UNSATURATED ZONE =        -845175.17       UNSATURATED ZONE =          10305.64
       SATURATED ZONE =        -727391.01         SATURATED ZONE =           -451.71

 OVERALL BUDGET ERROR =          -6462.55           BUDGET ERROR =             27.38


  PERCENT DISCREPANCY =             -0.04    PERCENT DISCREPANCY =              0.02



1
 SUMMARY VOLUMETRIC BUDGET FOR GSFLOW 
 DATE: 04 14 1981              CUMULATIVE TIME STEP:     196
 MODFLOW STRESS PERIOD      2     CURRENT TIME STEP:     196     ITERATIONS:      12

 -----------------------------------------------------------------------------------

   CUMULATIVE VOLUMES               L**3   RATES FOR THIS TIME STEP           L**3/T
   ------------------                      ------------------------

                                     IN                                         IN
                                     --                                         --
        PRECIPITATION =        1.6121D+07          PRECIPITATION =                  
           STREAMFLOW =                               STREAMFLOW =                  
     GW BOUNDARY FLOW =                         GW BOUNDARY FLOW =                  


                                    OUT                                        OUT
                                    ---                                        ---
   EVAPOTRANSPIRATION =        7271627.17     EVAPOTRANSPIRATION =         190847.08
           STREAMFLOW =        5027082.21             STREAMFLOW =          55478.66
     GW BOUNDARY FLOW =         127581.69       GW BOUNDARY FLOW =            653.53

   INFLOWS - OUTFLOWS =        3695192.08     INFLOWS - OUTFLOWS =        -246979.28
             --------                                   --------

 TOTAL STORAGE CHANGE =        3701479.65         STORAGE CHANGE =        -247002.18
       --------------                             --------------
         LAND SURFACE =        2766600.66           LAND SURFACE =        -261667.29
            SOIL ZONE =        2411535.91              SOIL ZONE =          -7012.00
     UNSATURATED ZONE =        -749697.54       UNSATURATED ZONE =          20259.94
       SATURATED ZONE =        -726959.39         SATURATED ZONE =           1417.17

 OVERALL BUDGET ERROR =          -6287.57           BUDGET ERROR =             22.91


  PERCENT DISCREPANCY =             -0.04    PERCENT DISCREPANCY =              0.01



1
 SUMMARY VOLUMETRIC BUDGET FOR GSFLOW 
 DATE: 04 21 1981              CUMULATIVE TIME STEP:     203
 MODFLOW STRESS PERIOD      2     CURRENT TIME STEP:     203     ITERATIONS:      13

 -----------------------------------------------------------------------------------

   CUMULATIVE VOLUMES               L**3   RATES FOR THIS TIME STEP           L**3/T
   ------------------                      ------------------------

                                     IN                                         IN
                                     --                                         --
        PRECIPITATION =        1.6310D+07          PRECIPITATION =                  
           STREAMFLOW =                               STREAMFLOW =                  
     GW BOUNDARY FLOW =                         GW BOUNDARY FLOW =                  


                                    OUT                                        OUT
                                    ---                                        ---
   EVAPOTRANSPIRATION =        8363754.62     EVAPOTRANSPIRATION =         161807.92
           STREAMFLOW =        5369543.70             STREAMFLOW =          46309.48
     GW BOUNDARY FLOW =         132152.53       GW BOUNDARY FLOW =            652.59

   INFLOWS - OUTFLOWS =        2444806.55     INFLOWS - OUTFLOWS =        -208769.99
             --------                                   --------

 TOTAL STORAGE CHANGE =        2450941.92         STORAGE CHANGE =        -208796.68
       --------------                             --------------
         LAND SURFACE =        1526141.71           LAND SURFACE =        -128414.83
            SOIL ZONE =        2261519.80              SOIL ZONE =        -101008.67
     UNSATURATED ZONE =        -621868.25       UNSATURATED ZONE =          18287.51
       SATURATED ZONE =        -714851.34         SATURATED ZONE =           2339.31

 OVERALL BUDGET ERROR =          -6135.37           BUDGET ERROR =             26.69


  PERCENT DISCREPANCY =             -0.04    PERCENT DISCREPANCY =              0.01



1
 SUMMARY VOLUMETRIC BUDGET FOR GSFLOW 
 DATE: 04 28 1981              CUMULATIVE TIME STEP:     210
 MODFLOW STRESS PERIOD      2     CURRENT TIME STEP:     210     ITERATIONS:      13

 -----------------------------------------------------------------------------------

   CUMULATIVE VOLUMES               L**3   RATES FOR THIS TIME STEP           L**3/T
   ------------------                      ------------------------

                                     IN                                         IN
                                     --                                         --
        PRECIPITATION =        1.6515D+07          PRECIPITATION =                  
           STREAMFLOW =                               STREAMFLOW =                  
     GW BOUNDARY FLOW =                         GW BOUNDARY FLOW =                  


                                    OUT                                        OUT
                                    ---                                        ---
   EVAPOTRANSPIRATION =        9639025.77     EVAPOTRANSPIRATION =         204813.38
           STREAMFLOW =        5578838.84             STREAMFLOW =          23089.75
     GW BOUNDARY FLOW =         136711.59       GW BOUNDARY FLOW =            650.35

   INFLOWS - OUTFLOWS =        1160870.75     INFLOWS - OUTFLOWS =        -228553.48
             --------                                   --------

 TOTAL STORAGE CHANGE =        1166833.73         STORAGE CHANGE =        -228577.18
       --------------                             --------------
         LAND SURFACE =         765041.89           LAND SURFACE =         -86581.37
            SOIL ZONE =        1726817.75              SOIL ZONE =        -137134.52
     UNSATURATED ZONE =        -609662.10       UNSATURATED ZONE =          -3944.23
       SATURATED ZONE =        -715363.81         SATURATED ZONE =           -917.07

 OVERALL BUDGET ERROR =          -5962.98           BUDGET ERROR =             23.70


  PERCENT DISCREPANCY =             -0.04    PERCENT DISCREPANCY =              0.01



1
 SUMMARY VOLUMETRIC BUDGET FOR GSFLOW 
 DATE: 05 05 1981              CUMULATIVE TIME STEP:     217
 MODFLOW STRESS PERIOD      2     CURRENT TIME STEP:     217     ITERATIONS:      14

 -----------------------------------------------------------------------------------

   CUMULATIVE VOLUMES               L**3   RATES FOR THIS TIME STEP           L**3/T
   ------------------                      ------------------------

                                     IN                                         IN
                                     --                                         --
        PRECIPITATION =        1.6515D+07          PRECIPITATION =                  
           STREAMFLOW =                               STREAMFLOW =                  
     GW BOUNDARY FLOW =                         GW BOUNDARY FLOW =                  


                                    OUT                                        OUT
                                    ---                                        ---
   EVAPOTRANSPIRATION =        1.0549D+07     EVAPOTRANSPIRATION =          58124.94
           STREAMFLOW =        5677335.09             STREAMFLOW =          10201.88
     GW BOUNDARY FLOW =         141256.98       GW BOUNDARY FLOW =            648.68

   INFLOWS - OUTFLOWS =         148246.77     INFLOWS - OUTFLOWS =         -68975.50
             --------                                   --------

 TOTAL STORAGE CHANGE =         154100.52         STORAGE CHANGE =         -68988.92
       --------------                             --------------
         LAND SURFACE =         399244.39           LAND SURFACE =         -19315.26
            SOIL ZONE =        1189273.58              SOIL ZONE =         -30744.42
     UNSATURATED ZONE =        -699921.42       UNSATURATED ZONE =         -15808.71
       SATURATED ZONE =        -734496.02         SATURATED ZONE =          -3120.54

 OVERALL BUDGET ERROR =          -5853.76           BUDGET ERROR =             13.42


  PERCENT DISCREPANCY =             -0.04    PERCENT DISCREPANCY =              0.02



1
 SUMMARY VOLUMETRIC BUDGET FOR GSFLOW 
 DATE: 05 12 1981              CUMULATIVE TIME STEP:     224
 MODFLOW STRESS PERIOD      2     CURRENT TIME STEP:     224     ITERATIONS:      11

 -----------------------------------------------------------------------------------

   CUMULATIVE VOLUMES               L**3   RATES FOR THIS TIME STEP           L**3/T
   ------------------                      ------------------------

                                     IN                                         IN
                                     --                                         --
        PRECIPITATION =        1.6515D+07          PRECIPITATION =                  
           STREAMFLOW =                               STREAMFLOW =                  
     GW BOUNDARY FLOW =                         GW BOUNDARY FLOW =                  


                                    OUT                                        OUT
                                    ---                                        ---
   EVAPOTRANSPIRATION =        1.1081D+07     EVAPOTRANSPIRATION =          95112.79
           STREAMFLOW =        5745477.87             STREAMFLOW =          10246.32
     GW BOUNDARY FLOW =         145795.04       GW BOUNDARY FLOW =            648.16

   INFLOWS - OUTFLOWS =        -456756.27     INFLOWS - OUTFLOWS =        -106007.27
             --------                                   --------

 TOTAL STORAGE CHANGE =        -450991.62         STORAGE CHANGE =        -106018.51
       --------------                             --------------
         LAND SURFACE =         236028.85           LAND SURFACE =         -28466.58
            SOIL ZONE =         880799.56              SOIL ZONE =         -59216.90
     UNSATURATED ZONE =        -801648.97       UNSATURATED ZONE =         -12884.32
       SATURATED ZONE =        -766171.05         SATURATED ZONE =          -5450.71

 OVERALL BUDGET ERROR =          -5764.66           BUDGET ERROR =             11.24


  PERCENT DISCREPANCY =             -0.03    PERCENT DISCREPANCY =              0.01



1
 SUMMARY VOLUMETRIC BUDGET FOR GSFLOW 
 DATE: 05 19 1981              CUMULATIVE TIME STEP:     231
 MODFLOW STRESS PERIOD      2     CURRENT TIME STEP:     231     ITERATIONS:      14

 -----------------------------------------------------------------------------------

   CUMULATIVE VOLUMES               L**3   RATES FOR THIS TIME STEP           L**3/T
   ------------------                      ------------------------

                                     IN                                         IN
                                     --                                         --
        PRECIPITATION =        1.7837D+07          PRECIPITATION =         169047.83
           STREAMFLOW =                               STREAMFLOW =                  
     GW BOUNDARY FLOW =                         GW BOUNDARY FLOW =                  


                                    OUT                                        OUT
                                    ---                                        ---
   EVAPOTRANSPIRATION =        1.1494D+07     EVAPOTRANSPIRATION =          34209.10
           STREAMFLOW =        5864981.64             STREAMFLOW =          21952.64
     GW BOUNDARY FLOW =         150333.89       GW BOUNDARY FLOW =            649.27

   INFLOWS - OUTFLOWS =         327836.61     INFLOWS - OUTFLOWS =         112236.82
             --------                                   --------

 TOTAL STORAGE CHANGE =         333549.78         STORAGE CHANGE =         112229.78
       --------------                             --------------
         LAND SURFACE =         199378.22           LAND SURFACE =          20104.58
            SOIL ZONE =        1807794.90              SOIL ZONE =         100102.05
     UNSATURATED ZONE =        -864551.37       UNSATURATED ZONE =          -1264.57
       SATURATED ZONE =        -809071.98         SATURATED ZONE =          -6712.28

 OVERALL BUDGET ERROR =          -5713.17           BUDGET ERROR =              7.04


  PERCENT DISCREPANCY =             -0.03    PERCENT DISCREPANCY =              0.00



1
 SUMMARY VOLUMETRIC BUDGET FOR GSFLOW 
 DATE: 05 26 1981              CUMULATIVE TIME STEP:     238
 MODFLOW STRESS PERIOD      2     CURRENT TIME STEP:     238     ITERATIONS:      13

 -----------------------------------------------------------------------------------

   CUMULATIVE VOLUMES               L**3   RATES FOR THIS TIME STEP           L**3/T
   ------------------                      ------------------------

                                     IN                                         IN
                                     --                                         --
        PRECIPITATION =        1.8252D+07          PRECIPITATION =         284301.98
           STREAMFLOW =                               STREAMFLOW =                  
     GW BOUNDARY FLOW =                         GW BOUNDARY FLOW =                  


                                    OUT                                        OUT
                                    ---                                        ---
   EVAPOTRANSPIRATION =        1.2404D+07     EVAPOTRANSPIRATION =         145741.84
           STREAMFLOW =        5964523.38             STREAMFLOW =          17760.23
     GW BOUNDARY FLOW =         154873.65       GW BOUNDARY FLOW =            648.35

   INFLOWS - OUTFLOWS =        -271774.95     INFLOWS - OUTFLOWS =         120151.56
             --------                                   --------

 TOTAL STORAGE CHANGE =        -266101.96         STORAGE CHANGE =         120146.70
       --------------                             --------------
         LAND SURFACE =         121447.14           LAND SURFACE =          -8077.84
            SOIL ZONE =        1397836.50              SOIL ZONE =         145800.91
     UNSATURATED ZONE =        -924749.90       UNSATURATED ZONE =         -10414.45
       SATURATED ZONE =        -860635.69         SATURATED ZONE =          -7161.93

 OVERALL BUDGET ERROR =          -5672.99           BUDGET ERROR =              4.87


  PERCENT DISCREPANCY =             -0.03    PERCENT DISCREPANCY =              0.00



1
 SUMMARY VOLUMETRIC BUDGET FOR GSFLOW 
 DATE: 06 02 1981              CUMULATIVE TIME STEP:     245
 MODFLOW STRESS PERIOD      2     CURRENT TIME STEP:     245     ITERATIONS:      12

 -----------------------------------------------------------------------------------

   CUMULATIVE VOLUMES               L**3   RATES FOR THIS TIME STEP           L**3/T
   ------------------                      ------------------------

                                     IN                                         IN
                                     --                                         --
        PRECIPITATION =        1.8318D+07          PRECIPITATION =          50867.39
           STREAMFLOW =                               STREAMFLOW =                  
     GW BOUNDARY FLOW =                         GW BOUNDARY FLOW =                  


                                    OUT                                        OUT
                                    ---                                        ---
   EVAPOTRANSPIRATION =        1.3202D+07     EVAPOTRANSPIRATION =          74856.08
           STREAMFLOW =        6030311.77             STREAMFLOW =           7553.68
     GW BOUNDARY FLOW =         159408.17       GW BOUNDARY FLOW =            647.39

   INFLOWS - OUTFLOWS =       -1073090.14     INFLOWS - OUTFLOWS =         -32189.76
             --------                                   --------

 TOTAL STORAGE CHANGE =       -1067447.90         STORAGE CHANGE =         -32194.53
       --------------                             --------------
         LAND SURFACE =          76065.81           LAND SURFACE =          28539.47
            SOIL ZONE =         783668.78              SOIL ZONE =         -39356.23
     UNSATURATED ZONE =       -1007778.40       UNSATURATED ZONE =         -12519.98
       SATURATED ZONE =        -919404.08         SATURATED ZONE =          -8857.78

 OVERALL BUDGET ERROR =          -5642.24           BUDGET ERROR =              4.76


  PERCENT DISCREPANCY =             -0.03    PERCENT DISCREPANCY =              0.01



1
 SUMMARY VOLUMETRIC BUDGET FOR GSFLOW 
 DATE: 06 09 1981              CUMULATIVE TIME STEP:     252
 MODFLOW STRESS PERIOD      2     CURRENT TIME STEP:     252     ITERATIONS:      15

 -----------------------------------------------------------------------------------

   CUMULATIVE VOLUMES               L**3   RATES FOR THIS TIME STEP           L**3/T
   ------------------                      ------------------------

                                     IN                                         IN
                                     --                                         --
        PRECIPITATION =        1.8318D+07          PRECIPITATION =                  
           STREAMFLOW =                               STREAMFLOW =                  
     GW BOUNDARY FLOW =                         GW BOUNDARY FLOW =                  


                                    OUT                                        OUT
                                    ---                                        ---
   EVAPOTRANSPIRATION =        1.3672D+07     EVAPOTRANSPIRATION =          50404.70
           STREAMFLOW =        6077005.09             STREAMFLOW =           6294.60
     GW BOUNDARY FLOW =         163937.96       GW BOUNDARY FLOW =            646.95

   INFLOWS - OUTFLOWS =       -1594222.46     INFLOWS - OUTFLOWS =         -57346.25
             --------                                   --------

 TOTAL STORAGE CHANGE =       -1588570.23         STORAGE CHANGE =         -57348.78
       --------------                             --------------
         LAND SURFACE =          13609.96           LAND SURFACE =          -3000.14
            SOIL ZONE =         478377.44              SOIL ZONE =         -32324.72
     UNSATURATED ZONE =       -1095123.86       UNSATURATED ZONE =         -12376.16
       SATURATED ZONE =        -985433.77         SATURATED ZONE =          -9647.77

 OVERALL BUDGET ERROR =          -5652.23           BUDGET ERROR =              2.53


  PERCENT DISCREPANCY =             -0.03    PERCENT DISCREPANCY =              0.00



1
 SUMMARY VOLUMETRIC BUDGET FOR GSFLOW 
 DATE: 06 16 1981              CUMULATIVE TIME STEP:     259
 MODFLOW STRESS PERIOD      2     CURRENT TIME STEP:     259     ITERATIONS:      13

 -----------------------------------------------------------------------------------

   CUMULATIVE VOLUMES               L**3   RATES FOR THIS TIME STEP           L**3/T
   ------------------                      ------------------------

                                     IN                                         IN
                                     --                                         --
        PRECIPITATION =        1.8318D+07          PRECIPITATION =                  
           STREAMFLOW =                               STREAMFLOW =                  
     GW BOUNDARY FLOW =                         GW BOUNDARY FLOW =                  


                                    OUT                                        OUT
                                    ---                                        ---
   EVAPOTRANSPIRATION =        1.3862D+07     EVAPOTRANSPIRATION =          44321.30
           STREAMFLOW =        6119806.69             STREAMFLOW =           6049.31
     GW BOUNDARY FLOW =         168465.71       GW BOUNDARY FLOW =            646.74

   INFLOWS - OUTFLOWS =       -1832394.43     INFLOWS - OUTFLOWS =         -51017.35
             --------                                   --------

 TOTAL STORAGE CHANGE =       -1826764.66         STORAGE CHANGE =         -51021.61
       --------------                             --------------
         LAND SURFACE =           6267.42           LAND SURFACE =          -1304.38
            SOIL ZONE =         400398.92              SOIL ZONE =         -28007.72
     UNSATURATED ZONE =       -1179024.59       UNSATURATED ZONE =         -11905.95
       SATURATED ZONE =       -1054406.41         SATURATED ZONE =          -9803.56

 OVERALL BUDGET ERROR =          -5629.77           BUDGET ERROR =              4.26


  PERCENT DISCREPANCY =             -0.03    PERCENT DISCREPANCY =              0.01



1
 SUMMARY VOLUMETRIC BUDGET FOR GSFLOW 
 DATE: 06 23 1981              CUMULATIVE TIME STEP:     266
 MODFLOW STRESS PERIOD      2     CURRENT TIME STEP:     266     ITERATIONS:      11

 -----------------------------------------------------------------------------------

   CUMULATIVE VOLUMES               L**3   RATES FOR THIS TIME STEP           L**3/T
   ------------------                      ------------------------

                                     IN                                         IN
                                     --                                         --
        PRECIPITATION =        1.8318D+07          PRECIPITATION =                  
           STREAMFLOW =                               STREAMFLOW =                  
     GW BOUNDARY FLOW =                         GW BOUNDARY FLOW =                  


                                    OUT                                        OUT
                                    ---                                        ---
   EVAPOTRANSPIRATION =        1.4139D+07     EVAPOTRANSPIRATION =          30913.72
           STREAMFLOW =        6161462.47             STREAMFLOW =           5894.62
     GW BOUNDARY FLOW =         172992.26       GW BOUNDARY FLOW =            646.60

   INFLOWS - OUTFLOWS =       -2155046.20     INFLOWS - OUTFLOWS =         -37454.94
             --------                                   --------

 TOTAL STORAGE CHANGE =       -2149427.68         STORAGE CHANGE =         -37453.13
       --------------                             --------------
         LAND SURFACE =                             LAND SURFACE =                  
            SOIL ZONE =         234834.08              SOIL ZONE =         -16026.36
     UNSATURATED ZONE =       -1259536.86       UNSATURATED ZONE =         -11072.43
       SATURATED ZONE =       -1124724.89         SATURATED ZONE =         -10354.34

 OVERALL BUDGET ERROR =          -5618.52           BUDGET ERROR =             -1.80


  PERCENT DISCREPANCY =             -0.03    PERCENT DISCREPANCY =             -0.00



1
 SUMMARY VOLUMETRIC BUDGET FOR GSFLOW 
 DATE: 06 30 1981              CUMULATIVE TIME STEP:     273
 MODFLOW STRESS PERIOD      2     CURRENT TIME STEP:     273     ITERATIONS:      13

 -----------------------------------------------------------------------------------

   CUMULATIVE VOLUMES               L**3   RATES FOR THIS TIME STEP           L**3/T
   ------------------                      ------------------------

                                     IN                                         IN
[...]
                                    ---                                        ---
   EVAPOTRANSPIRATION =        2.9592D+08     EVAPOTRANSPIRATION =          41295.18
           STREAMFLOW =        1.7486D+08             STREAMFLOW =           6691.46
     GW BOUNDARY FLOW =        3736515.63       GW BOUNDARY FLOW =            651.08

   INFLOWS - OUTFLOWS =       -9459375.90     INFLOWS - OUTFLOWS =         -48637.72
             --------                                   --------

 TOTAL STORAGE CHANGE =       -9367152.76         STORAGE CHANGE =         -48672.73
       --------------                             --------------
         LAND SURFACE =         152692.44           LAND SURFACE =          -6818.24
            SOIL ZONE =         234142.73              SOIL ZONE =         -21292.02
     UNSATURATED ZONE =        5993532.08       UNSATURATED ZONE =         -26185.48
       SATURATED ZONE =       -1.5748D+07         SATURATED ZONE =           5623.00

 OVERALL BUDGET ERROR =         -92223.15           BUDGET ERROR =             35.01


  PERCENT DISCREPANCY =             -0.02    PERCENT DISCREPANCY =              0.07



1
 SUMMARY VOLUMETRIC BUDGET FOR GSFLOW 
 DATE: 07 30 1996              CUMULATIVE TIME STEP:    5782
 MODFLOW STRESS PERIOD      2     CURRENT TIME STEP:    5782     ITERATIONS:      14

 -----------------------------------------------------------------------------------

   CUMULATIVE VOLUMES               L**3   RATES FOR THIS TIME STEP           L**3/T
   ------------------                      ------------------------

                                     IN                                         IN
                                     --                                         --
        PRECIPITATION =        4.6511D+08          PRECIPITATION =                  
           STREAMFLOW =                               STREAMFLOW =                  
     GW BOUNDARY FLOW =                         GW BOUNDARY FLOW =                  


                                    OUT                                        OUT
                                    ---                                        ---
   EVAPOTRANSPIRATION =        2.9618D+08     EVAPOTRANSPIRATION =          31104.62
           STREAMFLOW =        1.7491D+08             STREAMFLOW =           6542.76
     GW BOUNDARY FLOW =        3741071.44       GW BOUNDARY FLOW =            650.66

   INFLOWS - OUTFLOWS =       -9723203.90     INFLOWS - OUTFLOWS =         -38298.03
             --------                                   --------

 TOTAL STORAGE CHANGE =       -9631115.45         STORAGE CHANGE =         -38324.26
       --------------                             --------------
         LAND SURFACE =         112099.97           LAND SURFACE =          -4929.06
            SOIL ZONE =         153533.30              SOIL ZONE =         -13118.55
     UNSATURATED ZONE =        5816624.51       UNSATURATED ZONE =         -24835.79
       SATURATED ZONE =       -1.5713D+07         SATURATED ZONE =           4559.15

 OVERALL BUDGET ERROR =         -92088.45           BUDGET ERROR =             26.23


  PERCENT DISCREPANCY =             -0.02    PERCENT DISCREPANCY =              0.07



1
 SUMMARY VOLUMETRIC BUDGET FOR GSFLOW 
 DATE: 08 06 1996              CUMULATIVE TIME STEP:    5789
 MODFLOW STRESS PERIOD      2     CURRENT TIME STEP:    5789     ITERATIONS:      13

 -----------------------------------------------------------------------------------

   CUMULATIVE VOLUMES               L**3   RATES FOR THIS TIME STEP           L**3/T
   ------------------                      ------------------------

                                     IN                                         IN
                                     --                                         --
        PRECIPITATION =        4.6511D+08          PRECIPITATION =                  
           STREAMFLOW =                               STREAMFLOW =                  
     GW BOUNDARY FLOW =                         GW BOUNDARY FLOW =                  


                                    OUT                                        OUT
                                    ---                                        ---
   EVAPOTRANSPIRATION =        2.9634D+08     EVAPOTRANSPIRATION =          19256.46
           STREAMFLOW =        1.7495D+08             STREAMFLOW =           6343.52
     GW BOUNDARY FLOW =        3745625.83       GW BOUNDARY FLOW =            650.58

   INFLOWS - OUTFLOWS =       -9925709.44     INFLOWS - OUTFLOWS =         -26250.56
             --------                                   --------

 TOTAL STORAGE CHANGE =       -9833726.57         STORAGE CHANGE =         -26278.29
       --------------                             --------------
         LAND SURFACE =          85235.59           LAND SURFACE =          -3353.13
            SOIL ZONE =         118519.16              SOIL ZONE =          -2927.82
     UNSATURATED ZONE =        5647947.84       UNSATURATED ZONE =         -23745.45
       SATURATED ZONE =       -1.5685D+07         SATURATED ZONE =           3748.10

 OVERALL BUDGET ERROR =         -91982.87           BUDGET ERROR =             27.73


  PERCENT DISCREPANCY =             -0.02    PERCENT DISCREPANCY =              0.11



1
 SUMMARY VOLUMETRIC BUDGET FOR GSFLOW 
 DATE: 08 13 1996              CUMULATIVE TIME STEP:    5796
 MODFLOW STRESS PERIOD      2     CURRENT TIME STEP:    5796     ITERATIONS:      14

 -----------------------------------------------------------------------------------

   CUMULATIVE VOLUMES               L**3   RATES FOR THIS TIME STEP           L**3/T
   ------------------                      ------------------------

                                     IN                                         IN
                                     --                                         --
        PRECIPITATION =        4.6531D+08          PRECIPITATION =          54456.73
           STREAMFLOW =                               STREAMFLOW =                  
     GW BOUNDARY FLOW =                         GW BOUNDARY FLOW =                  


                                    OUT                                        OUT
                                    ---                                        ---
   EVAPOTRANSPIRATION =        2.9652D+08     EVAPOTRANSPIRATION =          36509.03
           STREAMFLOW =        1.7500D+08             STREAMFLOW =           7536.07
     GW BOUNDARY FLOW =        3750179.45       GW BOUNDARY FLOW =            650.53

   INFLOWS - OUTFLOWS =       -9956681.10     INFLOWS - OUTFLOWS =           9761.10
             --------                                   --------

 TOTAL STORAGE CHANGE =       -9864866.73         STORAGE CHANGE =           9735.35
       --------------                             --------------
         LAND SURFACE =          92673.80           LAND SURFACE =          -3493.45
            SOIL ZONE =         218471.61              SOIL ZONE =          32833.68
     UNSATURATED ZONE =        5484805.87       UNSATURATED ZONE =         -23395.06
       SATURATED ZONE =       -1.5661D+07         SATURATED ZONE =           3790.17

 OVERALL BUDGET ERROR =         -91814.37           BUDGET ERROR =             25.75


  PERCENT DISCREPANCY =             -0.02    PERCENT DISCREPANCY =              0.05



1
 SUMMARY VOLUMETRIC BUDGET FOR GSFLOW 
 DATE: 08 20 1996              CUMULATIVE TIME STEP:    5803
 MODFLOW STRESS PERIOD      2     CURRENT TIME STEP:    5803     ITERATIONS:      18

 -----------------------------------------------------------------------------------

   CUMULATIVE VOLUMES               L**3   RATES FOR THIS TIME STEP           L**3/T
   ------------------                      ------------------------

                                     IN                                         IN
                                     --                                         --
        PRECIPITATION =        4.6531D+08          PRECIPITATION =                  
           STREAMFLOW =                               STREAMFLOW =                  
     GW BOUNDARY FLOW =                         GW BOUNDARY FLOW =                  


                                    OUT                                        OUT
                                    ---                                        ---
   EVAPOTRANSPIRATION =        2.9672D+08     EVAPOTRANSPIRATION =          18744.61
           STREAMFLOW =        1.7504D+08             STREAMFLOW =           6151.59
     GW BOUNDARY FLOW =        3754731.54       GW BOUNDARY FLOW =            650.12

   INFLOWS - OUTFLOWS =       -1.0207D+07     INFLOWS - OUTFLOWS =         -25546.32
             --------                                   --------

 TOTAL STORAGE CHANGE =       -1.0115D+07         STORAGE CHANGE =         -25561.36
       --------------                             --------------
         LAND SURFACE =          40251.08           LAND SURFACE =          -2042.85
            SOIL ZONE =         157767.10              SOIL ZONE =          -4036.82
     UNSATURATED ZONE =        5324829.08       UNSATURATED ZONE =         -22460.33
       SATURATED ZONE =       -1.5638D+07         SATURATED ZONE =           2978.63

 OVERALL BUDGET ERROR =         -91742.89           BUDGET ERROR =             15.04


  PERCENT DISCREPANCY =             -0.02    PERCENT DISCREPANCY =              0.06



1
 SUMMARY VOLUMETRIC BUDGET FOR GSFLOW 
 DATE: 08 27 1996              CUMULATIVE TIME STEP:    5810
 MODFLOW STRESS PERIOD      2     CURRENT TIME STEP:    5810     ITERATIONS:      18

 -----------------------------------------------------------------------------------

   CUMULATIVE VOLUMES               L**3   RATES FOR THIS TIME STEP           L**3/T
   ------------------                      ------------------------

                                     IN                                         IN
                                     --                                         --
        PRECIPITATION =        4.6531D+08          PRECIPITATION =                  
           STREAMFLOW =                               STREAMFLOW =                  
     GW BOUNDARY FLOW =                         GW BOUNDARY FLOW =                  


                                    OUT                                        OUT
                                    ---                                        ---
   EVAPOTRANSPIRATION =        2.9686D+08     EVAPOTRANSPIRATION =          15285.89
           STREAMFLOW =        1.7509D+08             STREAMFLOW =           5999.65
     GW BOUNDARY FLOW =        3759280.85       GW BOUNDARY FLOW =            649.74

   INFLOWS - OUTFLOWS =       -1.0393D+07     INFLOWS - OUTFLOWS =         -21935.28
             --------                                   --------

 TOTAL STORAGE CHANGE =       -1.0301D+07         STORAGE CHANGE =         -21948.32
       --------------                             --------------
         LAND SURFACE =          26150.57           LAND SURFACE =          -1370.47
            SOIL ZONE =         120998.10              SOIL ZONE =          -1333.37
     UNSATURATED ZONE =        5172763.82       UNSATURATED ZONE =         -21147.54
       SATURATED ZONE =       -1.5621D+07         SATURATED ZONE =           1903.06

 OVERALL BUDGET ERROR =         -91663.63           BUDGET ERROR =             13.04


  PERCENT DISCREPANCY =             -0.02    PERCENT DISCREPANCY =              0.06



1
 SUMMARY VOLUMETRIC BUDGET FOR GSFLOW 
 DATE: 09 03 1996              CUMULATIVE TIME STEP:    5817
 MODFLOW STRESS PERIOD      2     CURRENT TIME STEP:    5817     ITERATIONS:      18

 -----------------------------------------------------------------------------------

   CUMULATIVE VOLUMES               L**3   RATES FOR THIS TIME STEP           L**3/T
   ------------------                      ------------------------

                                     IN                                         IN
                                     --                                         --
        PRECIPITATION =        4.6531D+08          PRECIPITATION =                  
           STREAMFLOW =                               STREAMFLOW =                  
     GW BOUNDARY FLOW =                         GW BOUNDARY FLOW =                  


                                    OUT                                        OUT
                                    ---                                        ---
   EVAPOTRANSPIRATION =        2.9697D+08     EVAPOTRANSPIRATION =          13666.03
           STREAMFLOW =        1.7513D+08             STREAMFLOW =           5896.99
     GW BOUNDARY FLOW =        3763827.41       GW BOUNDARY FLOW =            649.35

   INFLOWS - OUTFLOWS =       -1.0548D+07     INFLOWS - OUTFLOWS =         -20212.37
             --------                                   --------

 TOTAL STORAGE CHANGE =       -1.0456D+07         STORAGE CHANGE =         -20224.17
       --------------                             --------------
         LAND SURFACE =          17057.93           LAND SURFACE =          -1080.58
            SOIL ZONE =         108864.42              SOIL ZONE =           -121.23
     UNSATURATED ZONE =        5030480.46       UNSATURATED ZONE =         -20085.77
       SATURATED ZONE =       -1.5613D+07         SATURATED ZONE =           1063.41

 OVERALL BUDGET ERROR =         -91588.38           BUDGET ERROR =             11.80


  PERCENT DISCREPANCY =             -0.02    PERCENT DISCREPANCY =              0.06



1
 SUMMARY VOLUMETRIC BUDGET FOR GSFLOW 
 DATE: 09 10 1996              CUMULATIVE TIME STEP:    5824
 MODFLOW STRESS PERIOD      2     CURRENT TIME STEP:    5824     ITERATIONS:      18

 -----------------------------------------------------------------------------------

   CUMULATIVE VOLUMES               L**3   RATES FOR THIS TIME STEP           L**3/T
   ------------------                      ------------------------

                                     IN                                         IN
                                     --                                         --
        PRECIPITATION =        4.6531D+08          PRECIPITATION =                  
           STREAMFLOW =                               STREAMFLOW =                  
     GW BOUNDARY FLOW =                         GW BOUNDARY FLOW =                  


                                    OUT                                        OUT
                                    ---                                        ---
   EVAPOTRANSPIRATION =        2.9705D+08     EVAPOTRANSPIRATION =          13467.93
           STREAMFLOW =        1.7517D+08             STREAMFLOW =           5805.81
     GW BOUNDARY FLOW =        3768371.31       GW BOUNDARY FLOW =            648.97

   INFLOWS - OUTFLOWS =       -1.0677D+07     INFLOWS - OUTFLOWS =         -19922.71
             --------                                   --------

 TOTAL STORAGE CHANGE =       -1.0585D+07         STORAGE CHANGE =         -19934.37
       --------------                             --------------
         LAND SURFACE =          10644.28           LAND SURFACE =           -976.08
            SOIL ZONE =         118451.65              SOIL ZONE =           -144.82
     UNSATURATED ZONE =        4891284.56       UNSATURATED ZONE =         -19705.78
       SATURATED ZONE =       -1.5606D+07         SATURATED ZONE =            892.30

 OVERALL BUDGET ERROR =         -91504.51           BUDGET ERROR =             11.66


  PERCENT DISCREPANCY =             -0.02    PERCENT DISCREPANCY =              0.06



1
 SUMMARY VOLUMETRIC BUDGET FOR GSFLOW 
 DATE: 09 17 1996              CUMULATIVE TIME STEP:    5831
 MODFLOW STRESS PERIOD      2     CURRENT TIME STEP:    5831     ITERATIONS:      18

 -----------------------------------------------------------------------------------

   CUMULATIVE VOLUMES               L**3   RATES FOR THIS TIME STEP           L**3/T
   ------------------                      ------------------------

                                     IN                                         IN
                                     --                                         --
        PRECIPITATION =        4.6637D+08          PRECIPITATION =                  
           STREAMFLOW =                               STREAMFLOW =                  
     GW BOUNDARY FLOW =                         GW BOUNDARY FLOW =                  


                                    OUT                                        OUT
                                    ---                                        ---
   EVAPOTRANSPIRATION =        2.9726D+08     EVAPOTRANSPIRATION =          74571.48
           STREAMFLOW =        1.7523D+08             STREAMFLOW =           9795.03
     GW BOUNDARY FLOW =        3772914.62       GW BOUNDARY FLOW =            649.37

   INFLOWS - OUTFLOWS =       -9895216.57     INFLOWS - OUTFLOWS =         -85015.88
             --------                                   --------

 TOTAL STORAGE CHANGE =       -9803787.54         STORAGE CHANGE =         -85031.97
       --------------                             --------------
         LAND SURFACE =           6180.91           LAND SURFACE =         -34896.28
            SOIL ZONE =        1033279.12              SOIL ZONE =         -31507.92
     UNSATURATED ZONE =        4756478.41       UNSATURATED ZONE =         -19157.76
       SATURATED ZONE =       -1.5600D+07         SATURATED ZONE =            529.99

 OVERALL BUDGET ERROR =         -91429.04           BUDGET ERROR =             16.09


  PERCENT DISCREPANCY =             -0.02    PERCENT DISCREPANCY =              0.02



1
 SUMMARY VOLUMETRIC BUDGET FOR GSFLOW 
 DATE: 09 24 1996              CUMULATIVE TIME STEP:    5838
 MODFLOW STRESS PERIOD      2     CURRENT TIME STEP:    5838     ITERATIONS:      18

 -----------------------------------------------------------------------------------

   CUMULATIVE VOLUMES               L**3   RATES FOR THIS TIME STEP           L**3/T
   ------------------                      ------------------------

                                     IN                                         IN
                                     --                                         --
        PRECIPITATION =        4.6637D+08          PRECIPITATION =                  
           STREAMFLOW =                               STREAMFLOW =                  
     GW BOUNDARY FLOW =                         GW BOUNDARY FLOW =                  


                                    OUT                                        OUT
                                    ---                                        ---
   EVAPOTRANSPIRATION =        2.9779D+08     EVAPOTRANSPIRATION =          50869.40
           STREAMFLOW =        1.7528D+08             STREAMFLOW =           6133.02
     GW BOUNDARY FLOW =        3777456.21       GW BOUNDARY FLOW =            648.47

   INFLOWS - OUTFLOWS =       -1.0484D+07     INFLOWS - OUTFLOWS =         -57650.88
             --------                                   --------

 TOTAL STORAGE CHANGE =       -1.0392D+07         STORAGE CHANGE =         -57662.01
       --------------                             --------------
         LAND SURFACE =           2675.39           LAND SURFACE =           -481.80
            SOIL ZONE =         578043.54              SOIL ZONE =         -38733.95
     UNSATURATED ZONE =        4625313.74       UNSATURATED ZONE =         -18417.80
       SATURATED ZONE =       -1.5598D+07         SATURATED ZONE =            -28.47

 OVERALL BUDGET ERROR =         -91342.51           BUDGET ERROR =             11.13


  PERCENT DISCREPANCY =             -0.02    PERCENT DISCREPANCY =              0.02



