==========================================================================
Command line: 
..\..\..\bin\gsflow  .\gsflow_climate_hru.control

number of command line words: 2

Executable: ..\..\..\bin\gsflow

==========================================================================
Control File: .\gsflow_climate_hru.control
 WARNING, control parameter not used: solzone_module, ignored
==========================================================================
Execution start date and time (yyyy/mm/dd hh:mm:ss) 2023/02/27 19:12:30


               Precipitation-Runoff Modeling System (PRMS)
                       Version 5.3.0 02/23/2023

                            MODFLOW-NWT-SWR1 
  U.S. GEOLOGICAL SURVEY MODULAR FINITE-DIFFERENCE GROUNDWATER-FLOW MODEL
                         WITH NEWTON FORMULATION
                         Version 1.3.0 06/01/2022
              BASED ON MODFLOW-2005 Version 1.12.0 02/03/2017
                      SWR1 Version 1.04.0 09/15/2016

                        Github Commit Hash 18fa0b7


==========================================================================
Please give careful consideration to fixing all ERROR and WARNING messages
==========================================================================


    Active modules listed in the order in which they are called

        Process                    Module         Version Date
==============================================================
PRMS Computation Order          gsflow_prms         2023-02-23
Read Control File               read_control_file   2022-10-20
Read Parameter File             read_parameter_file 2022-01-12
Read Data File                  read_data_file      2022-06-02
Basin Definition                basin               2023-01-11
Cascading Flow                  cascade             2021-11-19
Common States and Fluxes        climateflow         2023-01-11
Potential Solar Radiation       soltab              2022-10-24
Time Series Data                obs                 2022-09-07
Timestep Control                prms_time           2022-04-21
Temperature Distribution        climate_hru         2023-02-08
Precipitation Distribution      climate_hru         2023-02-08
Solar Radiation Distribution    climate_hru         2023-02-08
Potential Evapotranspiration    climate_hru         2023-02-08
Transpiration Distribution      transp_tindex       2021-09-07
Canopy Interception             intcp               2022-10-26
Snow Dynamics                   snowcomp            2023-02-08
Surface Runoff                  srunoff_smidx       2023-02-23
Soilzone Computations           soilzone            2023-02-23
GSFLOW PRMS to MODFLOW          gsflow_prms2mf      2022-02-19
GSFLOW MODFLOW to PRMS          gsflow_mf2prms      2022-02-18
GSFLOW Output Budget Summary    gsflow_budget       2022-12-19
GSFLOW Output CSV Summary       gsflow_sum          2022-08-26
Output Summary                  subbasin            2022-09-07
==============================================================
GSFLOW MODFLOW main             gsflow_modflow      2022-10-20
==============================================================
MODFLOW Packages
==============================================================
UZF-NWT Package                 gwf2uzf1_NWT        2022-10-18
SFR-NWT Package                 gwf2sfr7_NWT        2022-10-18
==============================================================


Steady state simulation successful, used 368 iterations

Writing PRMS Water Budget File: ..\output\prms\sagehen_prms_cbh.out

 WARNING, pref_flow_infil_frac not specified, substituting pref_flow_den
  
 WARNING, parameter: irr_type is not specified
          Set to default value:           0
 WARNING, parameter: pref_flow_infil_frac is not specified
          Set to default value:  -1.000000    

Simulation time period: 1980/10/01 - 1996/09/30

==========================================================================


 Run end date and time (yyyy/mm/dd hh:mm:ss): 2023/02/27 19:27:40
 Elapsed run time: 15 Minutes, 9.867 Seconds

 Number of time steps:   5844;  Number of non-convergence:   0
 MF iterations:         63701;  SZ iterations:           63663
 Average MF iterations: 10.90;  Average SZ iterations:   10.89
 Maximum MF iterations:    32;  Maximum SZ iterations:      25

mxsziter reached: 13

 Normal termination of simulation

