==========================================================================
Command line: 
..\..\..\bin\gsflow  .\gsflow_climate_hru.control

number of command line words: 2

Executable: ..\..\..\bin\gsflow

==========================================================================
Control File: .\gsflow_climate_hru.control
 WARNING, control parameter not used: solzone_module, ignored
==========================================================================


               Precipitation-Runoff Modeling System (PRMS)
                       Version 6.0.0 02/01/2025

                            MODFLOW-NWT-SWR1 
  U.S. GEOLOGICAL SURVEY MODULAR FINITE-DIFFERENCE GROUNDWATER-FLOW MODEL
                         WITH NEWTON FORMULATION
                         Version 1.3.0 06/01/2022
              BASED ON MODFLOW-2005 Version 1.12.0 02/03/2017
                      SWR1 Version 1.04.0 09/15/2016


Execution start date and time (yyyy/mm/dd hh:mm:ss) 2025/02/03 11:18:12


==========================================================================
Please give careful consideration to fixing all ERROR and WARNING messages
==========================================================================


--------------------------------------------------------------------
    Active modules listed in the order in which they are called
--------------------------------------------------------------------
        Process                    Module         Version Date
==============================================================
PRMS Computation Order          gsflow_prms         2025-02-01
Read Control File               read_control_file   2025-01-16
Read Parameter File             read_parameter_file 2024-11-25
Read Data File                  read_data_file      2023-06-02
Basin Definition                basin               2024-08-09
Cascading Flow                  cascade             2023-11-01
Common States and Fluxes        climateflow         2025-01-16
Potential Solar Radiation       soltab              2024-01-22
Time Series Data                obs                 2023-11-01
Timestep Control                prms_time           2023-11-01
Temperature Distribution        climate_hru         2025-01-16
Precipitation Distribution      climate_hru         2025-01-16
Solar Radiation Distribution    climate_hru         2025-01-16
Potential Evapotranspiration    climate_hru         2025-01-16
Transpiration Distribution      transp_tindex       2023-11-01
Canopy Interception             intcp               2024-04-04
Snow Dynamics                   snowcomp            2025-01-21
Surface Runoff                  srunoff_smidx       2024-10-09
Soilzone Computations           soilzone            2024-12-06
GSFLOW PRMS to MODFLOW          gsflow_prms2mf      2024-05-30
GSFLOW MODFLOW to PRMS          gsflow_mf2prms      2022-02-18
GSFLOW Output Budget Summary    gsflow_budget       2024-02-14
GSFLOW Output CSV Summary       gsflow_sum          2024-02-14
Output Summary                  subbasin            2024-12-01
==============================================================
GSFLOW MODFLOW main             gsflow_modflow      2024-12-11
==============================================================
MODFLOW Packages
==============================================================
UZF-NWT Package                 gwf2uzf1_NWT        2022-10-18
SFR-NWT Package                 gwf2sfr7_NWT        2022-10-18
==============================================================


Steady state simulation successful, used 351 iterations

Writing PRMS Water Budget File: ..\output\prms\sagehen_prms_cbh.out

 WARNING, pref_flow_infil_frac not specified, substituting pref_flow_den
  
 WARNING, parameter: irr_type is not specified
          Set to default value:           0
 WARNING, parameter: pref_flow_infil_frac is not specified
          Set to default value:  -1.000000    
 WARNING, parameter: cascade_min is not specified
          Set to default value:  1.0000000E-06

Simulation time period: 1980/10/01 - 1996/09/30

==========================================================================


 Run end date and time (yyyy/mm/dd hh:mm:ss): 2025/02/03 11:32:51
 Elapsed run time: 14 Minutes, 38.698 Seconds

 Number of time steps:   5844;  Number of non-convergence:   0
 MF iterations:         63717;  SZ iterations:           63680
 Average MF iterations: 10.90;  Average SZ iterations:   10.90
 Maximum MF iterations:    31;  Maximum SZ iterations:      25

mxsziter reached: 13

 Normal termination of simulation

