                                  MODFLOW-NWT-SWR1 
      U.S. GEOLOGICAL SURVEY MODULAR FINITE-DIFFERENCE GROUNDWATER-FLOW MODEL
                            VERSION 1.3.0 06/01/2022
                    BASED ON MODFLOW-2005 VERSION 1.12.00 02/03/2017

 LIST FILE: .\output\Sfr2weltab.lst
                         UNIT   12

 OPENING .\input\Sfr2weltab.dis
 FILE TYPE:DIS   UNIT   13   STATUS:OLD    
 FORMAT:FORMATTED              ACCESS:SEQUENTIAL          

 OPENING .\input\Sfr2weltab.ghb
 FILE TYPE:GHB   UNIT   15   STATUS:OLD    
 FORMAT:FORMATTED              ACCESS:SEQUENTIAL          

 OPENING .\input\Sfr2weltab.bs6
 FILE TYPE:BAS6   UNIT   41   STATUS:OLD    
 FORMAT:FORMATTED              ACCESS:SEQUENTIAL          

 OPENING .\input\Sfr2weltab.upw
 FILE TYPE:UPW   UNIT   42   STATUS:OLD    
 FORMAT:FORMATTED              ACCESS:SEQUENTIAL          

 OPENING .\input\Sfr2weltab.nwt
 FILE TYPE:NWT   UNIT   43   STATUS:OLD    
 FORMAT:FORMATTED              ACCESS:SEQUENTIAL          

 OPENING .\input\Sfr2weltab.oc
 FILE TYPE:OC   UNIT   44   STATUS:OLD    
 FORMAT:FORMATTED              ACCESS:SEQUENTIAL          

 OPENING .\input\Sfr2weltab.sfr
 FILE TYPE:SFR   UNIT   45   STATUS:OLD    
 FORMAT:FORMATTED              ACCESS:SEQUENTIAL          

 OPENING .\input\Sfr2weltab.wel
 FILE TYPE:WEL   UNIT   91   STATUS:OLD    
 FORMAT:FORMATTED              ACCESS:SEQUENTIAL          

 OPENING .\output\Sfr2weltab.out
 FILE TYPE:DATA   UNIT   51   STATUS:UNKNOWN
 FORMAT:FORMATTED              ACCESS:SEQUENTIAL          

 OPENING .\input\weltab1.txt
 FILE TYPE:DATA   UNIT   92   STATUS:UNKNOWN
 FORMAT:FORMATTED              ACCESS:SEQUENTIAL          

 OPENING .\input\weltab2.txt
 FILE TYPE:DATA   UNIT   93   STATUS:UNKNOWN
 FORMAT:FORMATTED              ACCESS:SEQUENTIAL          

 OPENING .\input\Sfr2weltab.gag
 FILE TYPE:GAGE   UNIT   46   STATUS:OLD    
 FORMAT:FORMATTED              ACCESS:SEQUENTIAL          

 OPENING .\output\Sfr2weltab.gg1
 FILE TYPE:DATA   UNIT   83   STATUS:UNKNOWN
 FORMAT:FORMATTED              ACCESS:SEQUENTIAL          

 OPENING .\output\Sfr2weltab.gg2
 FILE TYPE:DATA   UNIT   84   STATUS:UNKNOWN
 FORMAT:FORMATTED              ACCESS:SEQUENTIAL          

 OPENING .\output\Sfr2weltab.gg3
 FILE TYPE:DATA   UNIT   85   STATUS:UNKNOWN
 FORMAT:FORMATTED              ACCESS:SEQUENTIAL          

 OPENING .\output\Sfr2weltab.gg4
 FILE TYPE:DATA   UNIT   86   STATUS:UNKNOWN
 FORMAT:FORMATTED              ACCESS:SEQUENTIAL          

 OPENING .\output\Sfr2weltab.gg5
 FILE TYPE:DATA   UNIT   87   STATUS:UNKNOWN
 FORMAT:FORMATTED              ACCESS:SEQUENTIAL          

 OPENING .\output\Sfr2weltab.gg6
 FILE TYPE:DATA   UNIT   88   STATUS:UNKNOWN
 FORMAT:FORMATTED              ACCESS:SEQUENTIAL          

 OPENING .\output\Sfr2weltab.gg7
 FILE TYPE:DATA   UNIT   89   STATUS:UNKNOWN
 FORMAT:FORMATTED              ACCESS:SEQUENTIAL          

 OPENING .\output\Sfr2weltab.gg8
 FILE TYPE:DATA   UNIT   90   STATUS:UNKNOWN
 FORMAT:FORMATTED              ACCESS:SEQUENTIAL          

 BAS -- BASIC PACKAGE, VERSION 1.1.4, 4/01/2018 INPUT READ FROM UNIT   41
 
 MODFLOW was compiled using mixed precision
 Precision of REAL variables:           6
 Precision of DOUBLE PRECISION variables:          15

 DISCRETIZATION INPUT DATA READ FROM UNIT   13
 # Discretization file input for hypothetical test simulation
 # Units: seconds, meters
    1 LAYERS         7 ROWS       100 COLUMNS
   50 STRESS PERIOD(S) IN SIMULATION
 MODEL TIME UNIT IS SECONDS
 MODEL LENGTH UNIT IS METERS
  Confining bed flag for each layer:
   0

                     DELR =   200.000    



                               DELC
 READING ON UNIT   13 WITH FORMAT: (FREE)              
   90.000       90.000       90.000       60.000       90.000    
   90.000       90.000    



           TOP ELEVATION OF LAYER 1
 READING ON UNIT   13 WITH FORMAT: (FREE)              

           1          2          3          4          5          6          7          8          9         10         11
          12         13         14         15         16         17         18         19         20         21         22
          23         24         25         26         27         28         29         30         31         32         33
          34         35         36         37         38         39         40         41         42         43         44
          45         46         47         48         49         50         51         52         53         54         55
          56         57         58         59         60         61         62         63         64         65         66
          67         68         69         70         71         72         73         74         75         76         77
          78         79         80         81         82         83         84         85         86         87         88
          89         90         91         92         93         94         95         96         97         98         99
         100
 .........................................................................................................................
   1    125.       124.       124.       124.       124.       123.       123.       123.       123.       122.       122.    
        122.       122.       121.       121.       121.       121.       120.       120.       120.       120.       119.    
        119.       119.       119.       118.       118.       118.       118.       117.       117.       117.       117.    
        116.       116.       116.       116.       115.       115.       115.       115.       114.       114.       114.    
        114.       113.       113.       113.       113.       112.       112.       112.       112.       111.       111.    
        111.       111.       110.       110.       110.       110.       109.       109.       109.       109.       108.    
        108.       108.       108.       107.       107.       107.       107.       106.       106.       106.       106.    
        105.       105.       105.       105.       104.       104.       104.       104.       103.       103.       103.    
        103.       102.       102.       102.       102.       101.       101.       101.       101.       100.       100.    
        100.    
   2    125.       124.       124.       124.       124.       123.       123.       123.       123.       122.       122.    
        122.       122.       121.       121.       121.       121.       120.       120.       120.       120.       119.    
        119.       119.       119.       118.       118.       118.       118.       117.       117.       117.       117.    
        116.       116.       116.       116.       115.       115.       115.       115.       114.       114.       114.    
        114.       113.       113.       113.       113.       112.       112.       112.       112.       111.       111.    
        111.       111.       110.       110.       110.       110.       109.       109.       109.       109.       108.    
        108.       108.       108.       107.       107.       107.       107.       106.       106.       106.       106.    
        105.       105.       105.       105.       104.       104.       104.       104.       103.       103.       103.    
        103.       102.       102.       102.       102.       101.       101.       101.       101.       100.       100.    
        100.    
   3    125.       124.       124.       124.       124.       123.       123.       123.       123.       122.       122.    
        122.       122.       121.       121.       121.       121.       120.       120.       120.       120.       119.    
        119.       119.       119.       118.       118.       118.       118.       117.       117.       117.       117.    
        116.       116.       116.       116.       115.       115.       115.       115.       114.       114.       114.    
        114.       113.       113.       113.       113.       112.       112.       112.       112.       111.       111.    
        111.       111.       110.       110.       110.       110.       109.       109.       109.       109.       108.    
        108.       108.       108.       107.       107.       107.       107.       106.       106.       106.       106.    
        105.       105.       105.       105.       104.       104.       104.       104.       103.       103.       103.    
        103.       102.       102.       102.       102.       101.       101.       101.       101.       100.       100.    
        100.    
   4    125.       124.       124.       124.       124.       123.       123.       123.       123.       122.       122.    
        122.       122.       121.       121.       121.       121.       120.       120.       120.       120.       119.    
        119.       119.       119.       118.       118.       118.       118.       117.       117.       117.       117.    
        116.       116.       116.       116.       115.       115.       115.       115.       114.       114.       114.    
        114.       113.       113.       113.       113.       112.       112.       112.       112.       111.       111.    
        111.       111.       110.       110.       110.       110.       109.       109.       109.       109.       108.    
        108.       108.       108.       107.       107.       107.       107.       106.       106.       106.       106.    
        105.       105.       105.       105.       104.       104.       104.       104.       103.       103.       103.    
        103.       102.       102.       102.       102.       101.       101.       101.       101.       100.       100.    
        100.    
   5    125.       124.       124.       124.       124.       123.       123.       123.       123.       122.       122.    
        122.       122.       121.       121.       121.       121.       120.       120.       120.       120.       119.    
        119.       119.       119.       118.       118.       118.       118.       117.       117.       117.       117.    
        116.       116.       116.       116.       115.       115.       115.       115.       114.       114.       114.    
        114.       113.       113.       113.       113.       112.       112.       112.       112.       111.       111.    
        111.       111.       110.       110.       110.       110.       109.       109.       109.       109.       108.    
        108.       108.       108.       107.       107.       107.       107.       106.       106.       106.       106.    
        105.       105.       105.       105.       104.       104.       104.       104.       103.       103.       103.    
        103.       102.       102.       102.       102.       101.       101.       101.       101.       100.       100.    
        100.    
   6    125.       124.       124.       124.       124.       123.       123.       123.       123.       122.       122.    
        122.       122.       121.       121.       121.       121.       120.       120.       120.       120.       119.    
        119.       119.       119.       118.       118.       118.       118.       117.       117.       117.       117.    
        116.       116.       116.       116.       115.       115.       115.       115.       114.       114.       114.    
        114.       113.       113.       113.       113.       112.       112.       112.       112.       111.       111.    
        111.       111.       110.       110.       110.       110.       109.       109.       109.       109.       108.    
        108.       108.       108.       107.       107.       107.       107.       106.       106.       106.       106.    
        105.       105.       105.       105.       104.       104.       104.       104.       103.       103.       103.    
        103.       102.       102.       102.       102.       101.       101.       101.       101.       100.       100.    
        100.    
   7    125.       124.       124.       124.       124.       123.       123.       123.       123.       122.       122.    
        122.       122.       121.       121.       121.       121.       120.       120.       120.       120.       119.    
        119.       119.       119.       118.       118.       118.       118.       117.       117.       117.       117.    
        116.       116.       116.       116.       115.       115.       115.       115.       114.       114.       114.    
        114.       113.       113.       113.       113.       112.       112.       112.       112.       111.       111.    
        111.       111.       110.       110.       110.       110.       109.       109.       109.       109.       108.    
        108.       108.       108.       107.       107.       107.       107.       106.       106.       106.       106.    
        105.       105.       105.       105.       104.       104.       104.       104.       103.       103.       103.    
        103.       102.       102.       102.       102.       101.       101.       101.       101.       100.       100.    
        100.    

   MODEL LAYER BOTTOM EL. =   0.00000     FOR LAYER   1


 STRESS PERIOD     LENGTH       TIME STEPS     MULTIPLIER FOR DELT    SS FLAG
 ----------------------------------------------------------------------------
        1         2592000.         30                    1.100         TR
        2         2592000.         30                    1.100         TR
        3         2592000.         30                    1.100         TR
        4         2592000.         30                    1.100         TR
        5         2592000.         30                    1.100         TR
        6         2592000.         30                    1.100         TR
        7         2592000.         30                    1.100         TR
        8         2592000.         30                    1.100         TR
        9         2592000.         30                    1.100         TR
       10         2592000.         30                    1.100         TR
       11         2592000.         30                    1.100         TR
       12         2592000.         30                    1.100         TR
       13         2592000.         30                    1.100         TR
       14         2592000.         30                    1.100         TR
       15         2592000.         30                    1.100         TR
       16         2592000.         30                    1.100         TR
       17         2592000.         30                    1.100         TR
       18         2592000.         30                    1.100         TR
       19         2592000.         30                    1.100         TR
       20         2592000.         30                    1.100         TR
       21         2592000.         30                    1.100         TR
       22         2592000.         30                    1.100         TR
       23         2592000.         30                    1.100         TR
       24         2592000.         30                    1.100         TR
       25         2592000.         30                    1.100         TR
       26         2592000.         30                    1.100         TR
       27         2592000.         30                    1.100         TR
       28         2592000.         30                    1.100         TR
       29         2592000.         30                    1.100         TR
       30         2592000.         30                    1.100         TR
       31         2592000.         30                    1.100         TR
       32         2592000.         30                    1.100         TR
       33         2592000.         30                    1.100         TR
       34         2592000.         30                    1.100         TR
       35         2592000.         30                    1.100         TR
       36         2592000.         30                    1.100         TR
       37         2592000.         30                    1.100         TR
       38         2592000.         30                    1.100         TR
       39         2592000.         30                    1.100         TR
       40         2592000.         30                    1.100         TR
       41         2592000.         30                    1.100         TR
       42         2592000.         30                    1.100         TR
       43         2592000.         30                    1.100         TR
       44         2592000.         30                    1.100         TR
       45         2592000.         30                    1.100         TR
       46         2592000.         30                    1.100         TR
       47         2592000.         30                    1.100         TR
       48         2592000.         30                    1.100         TR
       49         2592000.         30                    1.100         TR
       50         2592000.         30                    1.100         TR

 TRANSIENT SIMULATION



 
 # BAS6 Package input file for hypothetical test simulation                      
 # Test of SFR2 Package                                                          
 THE FREE FORMAT OPTION HAS BEEN SELECTED



                     BOUNDARY ARRAY FOR LAYER   1
 READING ON UNIT   41 WITH FORMAT: (30I2)              

      1 2 3 4 5 6 7 8 9101112131415161718192021222324252627282930313233343536373839404142434445464748495051525354555657585960
     61626364656667686970717273747576777879808182838485868788899091929394959697989100
 ............................................................................................................................
   1  1 1 1 1 1 1 1 1 1 1 1 1 1 1 1 1 1 1 1 1 1 1 1 1 1 1 1 1 1 1 1 1 1 1 1 1 1 1 1 1 1 1 1 1 1 1 1 1 1 1 1 1 1 1 1 1 1 1 1 1
      1 1 1 1 1 1 1 1 1 1 1 1 1 1 1 1 1 1 1 1 1 1 1 1 1 1 1 1 1 1 1 1 1 1 1 1 1 1 1 1
   2  1 1 1 1 1 1 1 1 1 1 1 1 1 1 1 1 1 1 1 1 1 1 1 1 1 1 1 1 1 1 1 1 1 1 1 1 1 1 1 1 1 1 1 1 1 1 1 1 1 1 1 1 1 1 1 1 1 1 1 1
      1 1 1 1 1 1 1 1 1 1 1 1 1 1 1 1 1 1 1 1 1 1 1 1 1 1 1 1 1 1 1 1 1 1 1 1 1 1 1 1
   3  1 1 1 1 1 1 1 1 1 1 1 1 1 1 1 1 1 1 1 1 1 1 1 1 1 1 1 1 1 1 1 1 1 1 1 1 1 1 1 1 1 1 1 1 1 1 1 1 1 1 1 1 1 1 1 1 1 1 1 1
      1 1 1 1 1 1 1 1 1 1 1 1 1 1 1 1 1 1 1 1 1 1 1 1 1 1 1 1 1 1 1 1 1 1 1 1 1 1 1 1
   4  1 1 1 1 1 1 1 1 1 1 1 1 1 1 1 1 1 1 1 1 1 1 1 1 1 1 1 1 1 1 1 1 1 1 1 1 1 1 1 1 1 1 1 1 1 1 1 1 1 1 1 1 1 1 1 1 1 1 1 1
      1 1 1 1 1 1 1 1 1 1 1 1 1 1 1 1 1 1 1 1 1 1 1 1 1 1 1 1 1 1 1 1 1 1 1 1 1 1 1 1
   5  1 1 1 1 1 1 1 1 1 1 1 1 1 1 1 1 1 1 1 1 1 1 1 1 1 1 1 1 1 1 1 1 1 1 1 1 1 1 1 1 1 1 1 1 1 1 1 1 1 1 1 1 1 1 1 1 1 1 1 1
      1 1 1 1 1 1 1 1 1 1 1 1 1 1 1 1 1 1 1 1 1 1 1 1 1 1 1 1 1 1 1 1 1 1 1 1 1 1 1 1
   6  1 1 1 1 1 1 1 1 1 1 1 1 1 1 1 1 1 1 1 1 1 1 1 1 1 1 1 1 1 1 1 1 1 1 1 1 1 1 1 1 1 1 1 1 1 1 1 1 1 1 1 1 1 1 1 1 1 1 1 1
      1 1 1 1 1 1 1 1 1 1 1 1 1 1 1 1 1 1 1 1 1 1 1 1 1 1 1 1 1 1 1 1 1 1 1 1 1 1 1 1
   7  1 1 1 1 1 1 1 1 1 1 1 1 1 1 1 1 1 1 1 1 1 1 1 1 1 1 1 1 1 1 1 1 1 1 1 1 1 1 1 1 1 1 1 1 1 1 1 1 1 1 1 1 1 1 1 1 1 1 1 1
      1 1 1 1 1 1 1 1 1 1 1 1 1 1 1 1 1 1 1 1 1 1 1 1 1 1 1 1 1 1 1 1 1 1 1 1 1 1 1 1

 AQUIFER HEAD WILL BE SET TO  -6999.0     AT ALL NO-FLOW NODES (IBOUND=0).

             INITIAL HEAD =   104.000     FOR LAYER   1
 # OC input file for hypothetical test simulation
 # Test of SFR2 Package

 OUTPUT CONTROL IS SPECIFIED ONLY AT TIME STEPS FOR WHICH OUTPUT IS DESIRED
 HEADS WILL BE SAVED WITH FORMAT: (10F10.3)           
 SAVED HEADS WILL BE LABELED
 COMPACT CELL-BY-CELL BUDGET FILES WILL BE WRITTEN
 HEAD PRINT FORMAT CODE IS  14    DRAWDOWN PRINT FORMAT CODE IS   0
 HEADS WILL BE SAVED ON UNIT   51    DRAWDOWNS WILL BE SAVED ON UNIT    0
 # NWT Input File
 # Test Problem 3 for MODFLOW-NWT
 #HEADTOL  FLUXTOL MAXITEROUT THICKFACT LINMETH IPRNWT IBOTAV OPTIONS DBDREDUCE DBDINCREASE DBDGAMMA MOMFACT BACKFLAG MAXBACKITER BACKTOL BACKREDUCE

 NWT1 -- Newton Solver, VERSION 1.1.4, 4/01/2018
         INPUT READ FROM UNIT 43

 SPECIFIED OPTION:
 SOLVER INPUT VALUES ARE SPECIFIED BY USER
 ***XMD linear solver will be used***
 
   CONVERGENCE CRITERION OF   0.100000E-05 FOR HEAD SOLUTION
   AND A TOLERANCE OF   0.100000E-02 FOR FLOW SOLUTION AND 
   A MAXIMUM OF   200 OUTER ITERATIONS. 


   D-B-D REDUCTION FACTOR OF    0.990000E+00 AND 
   A D-B-D INCREASE FACTOR OF    0.100000E-04 AND 
   A D-B-D RELAXATION OF    0.000000E+00 AND 
   A MOMENTUM FACTOR OF    0.100000E+00 .


 ***BACKTRACKING IS INACTIVE***
 XMD -- LINEAR SOLUTION BY XMD PACKAGE VERSION 1.30
     BY MOTOMU IBARAKI, OHIO STATE UNIVERSITY, COLOMBUS, OH
                 INPUT READ FROM UNIT 43
 ACCELERATION METHOD                    (IACL) =         2
 NODE ORDERING FLAG                   (NORDER) =         0
 LEVEL OF FILL                         (LEVEL) =         1
 MAXIMUM NUMBER OF ORTHOGONALIZATIONS  (NORTH) =        15
 INDEX FOR USING REDUCED SYSTEM      (IREDSYS) =         1
 RESID. REDUCTION CONVERGE CRITERION  (RRCTOL) =  0.000000E+00
 INDEX FOR USING DROP TOLERANCE     (IDROPTOL) =         1
 DROP TOLERANCE VALUE                  (EPSRN) =  0.500000E-02
 CONVERGENCE CRITERIA OF           (HCLOSEXMD) =  0.100000E-03
 MAX. NUMBER OF LINEAR ITERATIONS  (MXITERXMD) =        50


 UPW1 -- UPSTREAM WEIGHTING FLOW PACKAGE, VERSION 1.1.4, 4/01/2018
         INPUT READ FROM UNIT 42

 # LPF Package input file for hypothetical test simulation
 # Test of SFR2 Package
 No named parameters

   LAYER FLAGS:
 LAYER       LAYTYP          LAYAVG    CHANI           LAYVKA           LAYWET
 ---------------------------------------------------------------------------
    1             1             0     1.000E+00             0             0

   INTERPRETATION OF LAYER FLAGS:
                        INTERBLOCK     HORIZONTAL    DATA IN
         LAYER TYPE   TRANSMISSIVITY   ANISOTROPY   ARRAY VKA   WETTABILITY
 LAYER   (LAYTYP)        (LAYAVG)      (CHANI)     (LAYVKA)       (LAYWET)
 ---------------------------------------------------------------------------
    1   CONVERTIBLE      HARMONIC     1.000E+00    VERTICAL K  NON-WETTABLE

    HYD. COND. ALONG ROWS =  8.000000E-04 FOR LAYER   1

      VERTICAL HYD. COND. =  6.000000E-06 FOR LAYER   1

         SPECIFIC STORAGE =   0.00000     FOR LAYER   1

           SPECIFIC YIELD =  0.200000     FOR LAYER   1

 WEL -- WELL PACKAGE FOR NWT VERSION 1.1.4,  4/01/2018 INPUT READ FROM UNIT   91
 # header lines
 # header lines
 No named parameters

 PROCESSING WELL OPTIONS
  Pumping rates will be read from time series input files.          2 files will be read
  Pumping rates will be read from time series input files. A maximum of         51 row entries will be read per file

 END PROCESSING WELL OPTIONS
 MAXIMUM OF      2 ACTIVE WELLS AT ONE TIME
 CELL-BY-CELL FLOWS WILL BE PRINTED WHEN ICBCFL NOT 0
 No named parameters


     0 Well parameters

 GHB -- GENERAL-HEAD BOUNDARY PACKAGE, VERSION 7, 5/2/2005
         INPUT READ FROM UNIT   15
 # GHB Package input file for hypothetical test simulation
 # Test of SFR2 Package
 No named parameters
 MAXIMUM OF      7 ACTIVE GHB CELLS AT ONE TIME
 CELL-BY-CELL FLOWS WILL BE PRINTED WHEN ICBCFL NOT 0


     0 GHB parameters

 SFR7 -- STREAMFLOW ROUTING PACKAGE, VERSION 1.0.5, 2012-04-05
         INPUT READ FROM UNIT  45
 # SFR2 Package input file for hypothetical test simulation
 # Test of SFR2 Package; revised May 20, 2006
 No named parameters

 PROCESSING SFR2 OPTIONS
 
  Some stream information will be read by reach. This option replaces NSTRM<0

 END PROCESSING SFR2 OPTIONS
 


 NUMBER OF STREAM REACHES IS  100

 NUMBER OF STREAM SEGMENTS IS    1

 NUMBER OF STREAM PARAMETERS IS    0

 NUMBER OF STREAM SEGMENTS DEFINED USING PARAMETERS IS              0

 MAXIMUM ERROR FOR STREAM LEAKAGE RATES IS  1.00E-05

 CONSTANT FOR MANNINGS EQUATION IS  1.0000E+00





 OPTION FOR UNSATURATED FLOW BENEATH STREAMBEDS IS ACTIVE 




   STREAM NETWORK DESCRIPTION: 

   LAYER    ROW    COL   SEGMENT   REACH     LENGTH
                          NUMBER   NUMBER    IN CELL        
   --------------------------------------------------
      1      4      1       1        1    2.0000E+02
      1      4      2       1        2    2.0000E+02
      1      4      3       1        3    2.0000E+02
      1      4      4       1        4    2.0000E+02
      1      4      5       1        5    2.0000E+02
      1      4      6       1        6    2.0000E+02
      1      4      7       1        7    2.0000E+02
      1      4      8       1        8    2.0000E+02
      1      4      9       1        9    2.0000E+02
      1      4     10       1       10    2.0000E+02
      1      4     11       1       11    2.0000E+02
      1      4     12       1       12    2.0000E+02
      1      4     13       1       13    2.0000E+02
      1      4     14       1       14    2.0000E+02
      1      4     15       1       15    2.0000E+02
      1      4     16       1       16    2.0000E+02
      1      4     17       1       17    2.0000E+02
      1      4     18       1       18    2.0000E+02
      1      4     19       1       19    2.0000E+02
      1      4     20       1       20    2.0000E+02
      1      4     21       1       21    2.0000E+02
      1      4     22       1       22    2.0000E+02
      1      4     23       1       23    2.0000E+02
      1      4     24       1       24    2.0000E+02
      1      4     25       1       25    2.0000E+02
      1      4     26       1       26    2.0000E+02
      1      4     27       1       27    2.0000E+02
      1      4     28       1       28    2.0000E+02
      1      4     29       1       29    2.0000E+02
      1      4     30       1       30    2.0000E+02
      1      4     31       1       31    2.0000E+02
      1      4     32       1       32    2.0000E+02
      1      4     33       1       33    2.0000E+02
      1      4     34       1       34    2.0000E+02
      1      4     35       1       35    2.0000E+02
      1      4     36       1       36    2.0000E+02
      1      4     37       1       37    2.0000E+02
      1      4     38       1       38    2.0000E+02
      1      4     39       1       39    2.0000E+02
      1      4     40       1       40    2.0000E+02
      1      4     41       1       41    2.0000E+02
      1      4     42       1       42    2.0000E+02
      1      4     43       1       43    2.0000E+02
      1      4     44       1       44    2.0000E+02
      1      4     45       1       45    2.0000E+02
      1      4     46       1       46    2.0000E+02
      1      4     47       1       47    2.0000E+02
      1      4     48       1       48    2.0000E+02
      1      4     49       1       49    2.0000E+02
      1      4     50       1       50    2.0000E+02
      1      4     51       1       51    2.0000E+02
      1      4     52       1       52    2.0000E+02
      1      4     53       1       53    2.0000E+02
      1      4     54       1       54    2.0000E+02
      1      4     55       1       55    2.0000E+02
      1      4     56       1       56    2.0000E+02
      1      4     57       1       57    2.0000E+02
      1      4     58       1       58    2.0000E+02
      1      4     59       1       59    2.0000E+02
      1      4     60       1       60    2.0000E+02
      1      4     61       1       61    2.0000E+02
      1      4     62       1       62    2.0000E+02
      1      4     63       1       63    2.0000E+02
      1      4     64       1       64    2.0000E+02
      1      4     65       1       65    2.0000E+02
      1      4     66       1       66    2.0000E+02
      1      4     67       1       67    2.0000E+02
      1      4     68       1       68    2.0000E+02
      1      4     69       1       69    2.0000E+02
      1      4     70       1       70    2.0000E+02
      1      4     71       1       71    2.0000E+02
      1      4     72       1       72    2.0000E+02
      1      4     73       1       73    2.0000E+02
      1      4     74       1       74    2.0000E+02
      1      4     75       1       75    2.0000E+02
      1      4     76       1       76    2.0000E+02
      1      4     77       1       77    2.0000E+02
      1      4     78       1       78    2.0000E+02
      1      4     79       1       79    2.0000E+02
      1      4     80       1       80    2.0000E+02
      1      4     81       1       81    2.0000E+02
      1      4     82       1       82    2.0000E+02
      1      4     83       1       83    2.0000E+02
      1      4     84       1       84    2.0000E+02
      1      4     85       1       85    2.0000E+02
      1      4     86       1       86    2.0000E+02
      1      4     87       1       87    2.0000E+02
      1      4     88       1       88    2.0000E+02
      1      4     89       1       89    2.0000E+02
      1      4     90       1       90    2.0000E+02
      1      4     91       1       91    2.0000E+02
      1      4     92       1       92    2.0000E+02
      1      4     93       1       93    2.0000E+02
      1      4     94       1       94    2.0000E+02
      1      4     95       1       95    2.0000E+02
      1      4     96       1       96    2.0000E+02
      1      4     97       1       97    2.0000E+02
      1      4     98       1       98    2.0000E+02
      1      4     99       1       99    2.0000E+02
      1      4    100       1      100    2.0000E+02
 INITIAL WATER CONTENT IS LESS THAN RESIDUAL WATER CONTENT FOR STREAM SEGMENT:     1 REACH:     1 INITIAL WATER CONTENT RESET TO RESIDUAL OF  0.10000E+00
 INITIAL WATER CONTENT IS LESS THAN RESIDUAL WATER CONTENT FOR STREAM SEGMENT:     1 REACH:     2 INITIAL WATER CONTENT RESET TO RESIDUAL OF  0.10000E+00
 INITIAL WATER CONTENT IS LESS THAN RESIDUAL WATER CONTENT FOR STREAM SEGMENT:     1 REACH:     3 INITIAL WATER CONTENT RESET TO RESIDUAL OF  0.10000E+00
 INITIAL WATER CONTENT IS LESS THAN RESIDUAL WATER CONTENT FOR STREAM SEGMENT:     1 REACH:     4 INITIAL WATER CONTENT RESET TO RESIDUAL OF  0.10000E+00
 INITIAL WATER CONTENT IS LESS THAN RESIDUAL WATER CONTENT FOR STREAM SEGMENT:     1 REACH:     5 INITIAL WATER CONTENT RESET TO RESIDUAL OF  0.10000E+00
 INITIAL WATER CONTENT IS LESS THAN RESIDUAL WATER CONTENT FOR STREAM SEGMENT:     1 REACH:     6 INITIAL WATER CONTENT RESET TO RESIDUAL OF  0.10000E+00
 INITIAL WATER CONTENT IS LESS THAN RESIDUAL WATER CONTENT FOR STREAM SEGMENT:     1 REACH:     7 INITIAL WATER CONTENT RESET TO RESIDUAL OF  0.10000E+00
 INITIAL WATER CONTENT IS LESS THAN RESIDUAL WATER CONTENT FOR STREAM SEGMENT:     1 REACH:     8 INITIAL WATER CONTENT RESET TO RESIDUAL OF  0.10000E+00
 INITIAL WATER CONTENT IS LESS THAN RESIDUAL WATER CONTENT FOR STREAM SEGMENT:     1 REACH:     9 INITIAL WATER CONTENT RESET TO RESIDUAL OF  0.10000E+00
 INITIAL WATER CONTENT IS LESS THAN RESIDUAL WATER CONTENT FOR STREAM SEGMENT:     1 REACH:    10 INITIAL WATER CONTENT RESET TO RESIDUAL OF  0.10000E+00
 INITIAL WATER CONTENT IS LESS THAN RESIDUAL WATER CONTENT FOR STREAM SEGMENT:     1 REACH:    11 INITIAL WATER CONTENT RESET TO RESIDUAL OF  0.10000E+00
 INITIAL WATER CONTENT IS LESS THAN RESIDUAL WATER CONTENT FOR STREAM SEGMENT:     1 REACH:    12 INITIAL WATER CONTENT RESET TO RESIDUAL OF  0.10000E+00
 INITIAL WATER CONTENT IS LESS THAN RESIDUAL WATER CONTENT FOR STREAM SEGMENT:     1 REACH:    13 INITIAL WATER CONTENT RESET TO RESIDUAL OF  0.10000E+00
 INITIAL WATER CONTENT IS LESS THAN RESIDUAL WATER CONTENT FOR STREAM SEGMENT:     1 REACH:    14 INITIAL WATER CONTENT RESET TO RESIDUAL OF  0.10000E+00
 INITIAL WATER CONTENT IS LESS THAN RESIDUAL WATER CONTENT FOR STREAM SEGMENT:     1 REACH:    15 INITIAL WATER CONTENT RESET TO RESIDUAL OF  0.10000E+00
 INITIAL WATER CONTENT IS LESS THAN RESIDUAL WATER CONTENT FOR STREAM SEGMENT:     1 REACH:    16 INITIAL WATER CONTENT RESET TO RESIDUAL OF  0.10000E+00
 INITIAL WATER CONTENT IS LESS THAN RESIDUAL WATER CONTENT FOR STREAM SEGMENT:     1 REACH:    17 INITIAL WATER CONTENT RESET TO RESIDUAL OF  0.10000E+00
 INITIAL WATER CONTENT IS LESS THAN RESIDUAL WATER CONTENT FOR STREAM SEGMENT:     1 REACH:    18 INITIAL WATER CONTENT RESET TO RESIDUAL OF  0.10000E+00
 INITIAL WATER CONTENT IS LESS THAN RESIDUAL WATER CONTENT FOR STREAM SEGMENT:     1 REACH:    19 INITIAL WATER CONTENT RESET TO RESIDUAL OF  0.10000E+00
 INITIAL WATER CONTENT IS LESS THAN RESIDUAL WATER CONTENT FOR STREAM SEGMENT:     1 REACH:    20 INITIAL WATER CONTENT RESET TO RESIDUAL OF  0.10000E+00
 INITIAL WATER CONTENT IS LESS THAN RESIDUAL WATER CONTENT FOR STREAM SEGMENT:     1 REACH:    21 INITIAL WATER CONTENT RESET TO RESIDUAL OF  0.10000E+00
 INITIAL WATER CONTENT IS LESS THAN RESIDUAL WATER CONTENT FOR STREAM SEGMENT:     1 REACH:    22 INITIAL WATER CONTENT RESET TO RESIDUAL OF  0.10000E+00
 INITIAL WATER CONTENT IS LESS THAN RESIDUAL WATER CONTENT FOR STREAM SEGMENT:     1 REACH:    23 INITIAL WATER CONTENT RESET TO RESIDUAL OF  0.10000E+00
 INITIAL WATER CONTENT IS LESS THAN RESIDUAL WATER CONTENT FOR STREAM SEGMENT:     1 REACH:    24 INITIAL WATER CONTENT RESET TO RESIDUAL OF  0.10000E+00
 INITIAL WATER CONTENT IS LESS THAN RESIDUAL WATER CONTENT FOR STREAM SEGMENT:     1 REACH:    25 INITIAL WATER CONTENT RESET TO RESIDUAL OF  0.10000E+00
 INITIAL WATER CONTENT IS LESS THAN RESIDUAL WATER CONTENT FOR STREAM SEGMENT:     1 REACH:    26 INITIAL WATER CONTENT RESET TO RESIDUAL OF  0.10000E+00
 INITIAL WATER CONTENT IS LESS THAN RESIDUAL WATER CONTENT FOR STREAM SEGMENT:     1 REACH:    27 INITIAL WATER CONTENT RESET TO RESIDUAL OF  0.10000E+00
 INITIAL WATER CONTENT IS LESS THAN RESIDUAL WATER CONTENT FOR STREAM SEGMENT:     1 REACH:    28 INITIAL WATER CONTENT RESET TO RESIDUAL OF  0.10000E+00
 INITIAL WATER CONTENT IS LESS THAN RESIDUAL WATER CONTENT FOR STREAM SEGMENT:     1 REACH:    29 INITIAL WATER CONTENT RESET TO RESIDUAL OF  0.10000E+00
 INITIAL WATER CONTENT IS LESS THAN RESIDUAL WATER CONTENT FOR STREAM SEGMENT:     1 REACH:    30 INITIAL WATER CONTENT RESET TO RESIDUAL OF  0.10000E+00
 INITIAL WATER CONTENT IS LESS THAN RESIDUAL WATER CONTENT FOR STREAM SEGMENT:     1 REACH:    31 INITIAL WATER CONTENT RESET TO RESIDUAL OF  0.10000E+00
 INITIAL WATER CONTENT IS LESS THAN RESIDUAL WATER CONTENT FOR STREAM SEGMENT:     1 REACH:    32 INITIAL WATER CONTENT RESET TO RESIDUAL OF  0.10000E+00
 INITIAL WATER CONTENT IS LESS THAN RESIDUAL WATER CONTENT FOR STREAM SEGMENT:     1 REACH:    33 INITIAL WATER CONTENT RESET TO RESIDUAL OF  0.10000E+00
 INITIAL WATER CONTENT IS LESS THAN RESIDUAL WATER CONTENT FOR STREAM SEGMENT:     1 REACH:    34 INITIAL WATER CONTENT RESET TO RESIDUAL OF  0.10000E+00
 INITIAL WATER CONTENT IS LESS THAN RESIDUAL WATER CONTENT FOR STREAM SEGMENT:     1 REACH:    35 INITIAL WATER CONTENT RESET TO RESIDUAL OF  0.10000E+00
 INITIAL WATER CONTENT IS LESS THAN RESIDUAL WATER CONTENT FOR STREAM SEGMENT:     1 REACH:    36 INITIAL WATER CONTENT RESET TO RESIDUAL OF  0.10000E+00
 INITIAL WATER CONTENT IS LESS THAN RESIDUAL WATER CONTENT FOR STREAM SEGMENT:     1 REACH:    37 INITIAL WATER CONTENT RESET TO RESIDUAL OF  0.10000E+00
 INITIAL WATER CONTENT IS LESS THAN RESIDUAL WATER CONTENT FOR STREAM SEGMENT:     1 REACH:    38 INITIAL WATER CONTENT RESET TO RESIDUAL OF  0.10000E+00
 INITIAL WATER CONTENT IS LESS THAN RESIDUAL WATER CONTENT FOR STREAM SEGMENT:     1 REACH:    39 INITIAL WATER CONTENT RESET TO RESIDUAL OF  0.10000E+00
 INITIAL WATER CONTENT IS LESS THAN RESIDUAL WATER CONTENT FOR STREAM SEGMENT:     1 REACH:    40 INITIAL WATER CONTENT RESET TO RESIDUAL OF  0.10000E+00
 INITIAL WATER CONTENT IS LESS THAN RESIDUAL WATER CONTENT FOR STREAM SEGMENT:     1 REACH:    41 INITIAL WATER CONTENT RESET TO RESIDUAL OF  0.10000E+00
 INITIAL WATER CONTENT IS LESS THAN RESIDUAL WATER CONTENT FOR STREAM SEGMENT:     1 REACH:    42 INITIAL WATER CONTENT RESET TO RESIDUAL OF  0.10000E+00
 INITIAL WATER CONTENT IS LESS THAN RESIDUAL WATER CONTENT FOR STREAM SEGMENT:     1 REACH:    43 INITIAL WATER CONTENT RESET TO RESIDUAL OF  0.10000E+00
 INITIAL WATER CONTENT IS LESS THAN RESIDUAL WATER CONTENT FOR STREAM SEGMENT:     1 REACH:    44 INITIAL WATER CONTENT RESET TO RESIDUAL OF  0.10000E+00
 INITIAL WATER CONTENT IS LESS THAN RESIDUAL WATER CONTENT FOR STREAM SEGMENT:     1 REACH:    45 INITIAL WATER CONTENT RESET TO RESIDUAL OF  0.10000E+00
 INITIAL WATER CONTENT IS LESS THAN RESIDUAL WATER CONTENT FOR STREAM SEGMENT:     1 REACH:    46 INITIAL WATER CONTENT RESET TO RESIDUAL OF  0.10000E+00
 INITIAL WATER CONTENT IS LESS THAN RESIDUAL WATER CONTENT FOR STREAM SEGMENT:     1 REACH:    47 INITIAL WATER CONTENT RESET TO RESIDUAL OF  0.10000E+00
 INITIAL WATER CONTENT IS LESS THAN RESIDUAL WATER CONTENT FOR STREAM SEGMENT:     1 REACH:    48 INITIAL WATER CONTENT RESET TO RESIDUAL OF  0.10000E+00
 INITIAL WATER CONTENT IS LESS THAN RESIDUAL WATER CONTENT FOR STREAM SEGMENT:     1 REACH:    49 INITIAL WATER CONTENT RESET TO RESIDUAL OF  0.10000E+00
 INITIAL WATER CONTENT IS LESS THAN RESIDUAL WATER CONTENT FOR STREAM SEGMENT:     1 REACH:    50 INITIAL WATER CONTENT RESET TO RESIDUAL OF  0.10000E+00
 INITIAL WATER CONTENT IS LESS THAN RESIDUAL WATER CONTENT FOR STREAM SEGMENT:     1 REACH:    51 INITIAL WATER CONTENT RESET TO RESIDUAL OF  0.10000E+00
 INITIAL WATER CONTENT IS LESS THAN RESIDUAL WATER CONTENT FOR STREAM SEGMENT:     1 REACH:    52 INITIAL WATER CONTENT RESET TO RESIDUAL OF  0.10000E+00
 INITIAL WATER CONTENT IS LESS THAN RESIDUAL WATER CONTENT FOR STREAM SEGMENT:     1 REACH:    53 INITIAL WATER CONTENT RESET TO RESIDUAL OF  0.10000E+00
 INITIAL WATER CONTENT IS LESS THAN RESIDUAL WATER CONTENT FOR STREAM SEGMENT:     1 REACH:    54 INITIAL WATER CONTENT RESET TO RESIDUAL OF  0.10000E+00
 INITIAL WATER CONTENT IS LESS THAN RESIDUAL WATER CONTENT FOR STREAM SEGMENT:     1 REACH:    55 INITIAL WATER CONTENT RESET TO RESIDUAL OF  0.10000E+00
 INITIAL WATER CONTENT IS LESS THAN RESIDUAL WATER CONTENT FOR STREAM SEGMENT:     1 REACH:    56 INITIAL WATER CONTENT RESET TO RESIDUAL OF  0.10000E+00
 INITIAL WATER CONTENT IS LESS THAN RESIDUAL WATER CONTENT FOR STREAM SEGMENT:     1 REACH:    57 INITIAL WATER CONTENT RESET TO RESIDUAL OF  0.10000E+00
 INITIAL WATER CONTENT IS LESS THAN RESIDUAL WATER CONTENT FOR STREAM SEGMENT:     1 REACH:    58 INITIAL WATER CONTENT RESET TO RESIDUAL OF  0.10000E+00
 INITIAL WATER CONTENT IS LESS THAN RESIDUAL WATER CONTENT FOR STREAM SEGMENT:     1 REACH:    59 INITIAL WATER CONTENT RESET TO RESIDUAL OF  0.10000E+00
 INITIAL WATER CONTENT IS LESS THAN RESIDUAL WATER CONTENT FOR STREAM SEGMENT:     1 REACH:    60 INITIAL WATER CONTENT RESET TO RESIDUAL OF  0.10000E+00
 INITIAL WATER CONTENT IS LESS THAN RESIDUAL WATER CONTENT FOR STREAM SEGMENT:     1 REACH:    61 INITIAL WATER CONTENT RESET TO RESIDUAL OF  0.10000E+00
 INITIAL WATER CONTENT IS LESS THAN RESIDUAL WATER CONTENT FOR STREAM SEGMENT:     1 REACH:    62 INITIAL WATER CONTENT RESET TO RESIDUAL OF  0.10000E+00
 INITIAL WATER CONTENT IS LESS THAN RESIDUAL WATER CONTENT FOR STREAM SEGMENT:     1 REACH:    63 INITIAL WATER CONTENT RESET TO RESIDUAL OF  0.10000E+00
 INITIAL WATER CONTENT IS LESS THAN RESIDUAL WATER CONTENT FOR STREAM SEGMENT:     1 REACH:    64 INITIAL WATER CONTENT RESET TO RESIDUAL OF  0.10000E+00
 INITIAL WATER CONTENT IS LESS THAN RESIDUAL WATER CONTENT FOR STREAM SEGMENT:     1 REACH:    65 INITIAL WATER CONTENT RESET TO RESIDUAL OF  0.10000E+00
 INITIAL WATER CONTENT IS LESS THAN RESIDUAL WATER CONTENT FOR STREAM SEGMENT:     1 REACH:    66 INITIAL WATER CONTENT RESET TO RESIDUAL OF  0.10000E+00
 INITIAL WATER CONTENT IS LESS THAN RESIDUAL WATER CONTENT FOR STREAM SEGMENT:     1 REACH:    67 INITIAL WATER CONTENT RESET TO RESIDUAL OF  0.10000E+00
 INITIAL WATER CONTENT IS LESS THAN RESIDUAL WATER CONTENT FOR STREAM SEGMENT:     1 REACH:    68 INITIAL WATER CONTENT RESET TO RESIDUAL OF  0.10000E+00
 INITIAL WATER CONTENT IS LESS THAN RESIDUAL WATER CONTENT FOR STREAM SEGMENT:     1 REACH:    69 INITIAL WATER CONTENT RESET TO RESIDUAL OF  0.10000E+00
 INITIAL WATER CONTENT IS LESS THAN RESIDUAL WATER CONTENT FOR STREAM SEGMENT:     1 REACH:    70 INITIAL WATER CONTENT RESET TO RESIDUAL OF  0.10000E+00
 INITIAL WATER CONTENT IS LESS THAN RESIDUAL WATER CONTENT FOR STREAM SEGMENT:     1 REACH:    71 INITIAL WATER CONTENT RESET TO RESIDUAL OF  0.10000E+00
 INITIAL WATER CONTENT IS LESS THAN RESIDUAL WATER CONTENT FOR STREAM SEGMENT:     1 REACH:    72 INITIAL WATER CONTENT RESET TO RESIDUAL OF  0.10000E+00
 INITIAL WATER CONTENT IS LESS THAN RESIDUAL WATER CONTENT FOR STREAM SEGMENT:     1 REACH:    73 INITIAL WATER CONTENT RESET TO RESIDUAL OF  0.10000E+00
 INITIAL WATER CONTENT IS LESS THAN RESIDUAL WATER CONTENT FOR STREAM SEGMENT:     1 REACH:    74 INITIAL WATER CONTENT RESET TO RESIDUAL OF  0.10000E+00
 INITIAL WATER CONTENT IS LESS THAN RESIDUAL WATER CONTENT FOR STREAM SEGMENT:     1 REACH:    75 INITIAL WATER CONTENT RESET TO RESIDUAL OF  0.10000E+00
 INITIAL WATER CONTENT IS LESS THAN RESIDUAL WATER CONTENT FOR STREAM SEGMENT:     1 REACH:    76 INITIAL WATER CONTENT RESET TO RESIDUAL OF  0.10000E+00
 INITIAL WATER CONTENT IS LESS THAN RESIDUAL WATER CONTENT FOR STREAM SEGMENT:     1 REACH:    77 INITIAL WATER CONTENT RESET TO RESIDUAL OF  0.10000E+00
 INITIAL WATER CONTENT IS LESS THAN RESIDUAL WATER CONTENT FOR STREAM SEGMENT:     1 REACH:    78 INITIAL WATER CONTENT RESET TO RESIDUAL OF  0.10000E+00
 INITIAL WATER CONTENT IS LESS THAN RESIDUAL WATER CONTENT FOR STREAM SEGMENT:     1 REACH:    79 INITIAL WATER CONTENT RESET TO RESIDUAL OF  0.10000E+00
 INITIAL WATER CONTENT IS LESS THAN RESIDUAL WATER CONTENT FOR STREAM SEGMENT:     1 REACH:    80 INITIAL WATER CONTENT RESET TO RESIDUAL OF  0.10000E+00
 INITIAL WATER CONTENT IS LESS THAN RESIDUAL WATER CONTENT FOR STREAM SEGMENT:     1 REACH:    81 INITIAL WATER CONTENT RESET TO RESIDUAL OF  0.10000E+00
 INITIAL WATER CONTENT IS LESS THAN RESIDUAL WATER CONTENT FOR STREAM SEGMENT:     1 REACH:    82 INITIAL WATER CONTENT RESET TO RESIDUAL OF  0.10000E+00
 INITIAL WATER CONTENT IS LESS THAN RESIDUAL WATER CONTENT FOR STREAM SEGMENT:     1 REACH:    83 INITIAL WATER CONTENT RESET TO RESIDUAL OF  0.10000E+00
 INITIAL WATER CONTENT IS LESS THAN RESIDUAL WATER CONTENT FOR STREAM SEGMENT:     1 REACH:    84 INITIAL WATER CONTENT RESET TO RESIDUAL OF  0.10000E+00
 INITIAL WATER CONTENT IS LESS THAN RESIDUAL WATER CONTENT FOR STREAM SEGMENT:     1 REACH:    85 INITIAL WATER CONTENT RESET TO RESIDUAL OF  0.10000E+00
 INITIAL WATER CONTENT IS LESS THAN RESIDUAL WATER CONTENT FOR STREAM SEGMENT:     1 REACH:    86 INITIAL WATER CONTENT RESET TO RESIDUAL OF  0.10000E+00
 INITIAL WATER CONTENT IS LESS THAN RESIDUAL WATER CONTENT FOR STREAM SEGMENT:     1 REACH:    87 INITIAL WATER CONTENT RESET TO RESIDUAL OF  0.10000E+00
 INITIAL WATER CONTENT IS LESS THAN RESIDUAL WATER CONTENT FOR STREAM SEGMENT:     1 REACH:    88 INITIAL WATER CONTENT RESET TO RESIDUAL OF  0.10000E+00
 INITIAL WATER CONTENT IS LESS THAN RESIDUAL WATER CONTENT FOR STREAM SEGMENT:     1 REACH:    89 INITIAL WATER CONTENT RESET TO RESIDUAL OF  0.10000E+00
 INITIAL WATER CONTENT IS LESS THAN RESIDUAL WATER CONTENT FOR STREAM SEGMENT:     1 REACH:    90 INITIAL WATER CONTENT RESET TO RESIDUAL OF  0.10000E+00
 INITIAL WATER CONTENT IS LESS THAN RESIDUAL WATER CONTENT FOR STREAM SEGMENT:     1 REACH:    91 INITIAL WATER CONTENT RESET TO RESIDUAL OF  0.10000E+00
 INITIAL WATER CONTENT IS LESS THAN RESIDUAL WATER CONTENT FOR STREAM SEGMENT:     1 REACH:    92 INITIAL WATER CONTENT RESET TO RESIDUAL OF  0.10000E+00
 INITIAL WATER CONTENT IS LESS THAN RESIDUAL WATER CONTENT FOR STREAM SEGMENT:     1 REACH:    93 INITIAL WATER CONTENT RESET TO RESIDUAL OF  0.10000E+00
 INITIAL WATER CONTENT IS LESS THAN RESIDUAL WATER CONTENT FOR STREAM SEGMENT:     1 REACH:    94 INITIAL WATER CONTENT RESET TO RESIDUAL OF  0.10000E+00
 INITIAL WATER CONTENT IS LESS THAN RESIDUAL WATER CONTENT FOR STREAM SEGMENT:     1 REACH:    95 INITIAL WATER CONTENT RESET TO RESIDUAL OF  0.10000E+00
 INITIAL WATER CONTENT IS LESS THAN RESIDUAL WATER CONTENT FOR STREAM SEGMENT:     1 REACH:    96 INITIAL WATER CONTENT RESET TO RESIDUAL OF  0.10000E+00
 INITIAL WATER CONTENT IS LESS THAN RESIDUAL WATER CONTENT FOR STREAM SEGMENT:     1 REACH:    97 INITIAL WATER CONTENT RESET TO RESIDUAL OF  0.10000E+00
 INITIAL WATER CONTENT IS LESS THAN RESIDUAL WATER CONTENT FOR STREAM SEGMENT:     1 REACH:    98 INITIAL WATER CONTENT RESET TO RESIDUAL OF  0.10000E+00
 INITIAL WATER CONTENT IS LESS THAN RESIDUAL WATER CONTENT FOR STREAM SEGMENT:     1 REACH:    99 INITIAL WATER CONTENT RESET TO RESIDUAL OF  0.10000E+00
 INITIAL WATER CONTENT IS LESS THAN RESIDUAL WATER CONTENT FOR STREAM SEGMENT:     1 REACH:   100 INITIAL WATER CONTENT RESET TO RESIDUAL OF  0.10000E+00






   8 GAGING STATIONS WERE SPECIFIED.
     (Lakes are identified by a negative value of the Lake Number)
     RECORDS WILL BE WRITTEN TO SEPARATE OUTPUT FILES REPRESENTED BY FOLLOWING UNIT NUMBERS:

 Stream Gages:
  GAGE #   SEGMENT   REACH   UNIT   OUTTYPE
       1       1      20      83       6
       2       1      20      84       7
       3       1      40      85       6
       4       1      40      86       7
       5       1      60      87       6
       6       1      60      88       7
       7       1      80      89       6
       8       1      80      90       7




1
                            STRESS PERIOD NO.    1, LENGTH =   2592000.    
                            -----------------------------------------------

                              NUMBER OF TIME STEPS =    30

                               MULTIPLIER FOR DELT =     1.100

                            INITIAL TIME STEP SIZE =   15757.40    
 #well time series values for testsfr2 problem
 #well time series values for testsfr2 problem

      1 WELL 

 BOUND. NO. LAYER   ROW   COL     STAGE      CONDUCTANCE         
 ----------------------------------------------------------------
      1      1      1    100       75.00           4.100    
      2      1      2    100       75.00           4.100    
      3      1      3    100       75.00           4.100    
      4      1      4    100       75.00           4.100    
      5      1      5    100       75.00           4.100    
      6      1      6    100       75.00           4.100    
      7      1      7    100       75.00           4.100    

      7 GHB CELLS



 CLASSIFICATION & COUNT OF STREAM SEGMENTS BASED ON SOURCE OF INFLOW:

                HEADWATER     DIVERSION     RECEIVES TRIBUTARY FLOW
                ---------     ---------     -----------------------
                     1              0               0



                    INPUT DATA FOR EACH STREAM SEGMENT
 ---------------------------------------------------------------------------------------------

 SEGMENT    SEG.     INFLOW   OVERLAND   STREAM    STREAM   ICALC  OUTFLOW  DIVERSION PRIORITY
    NO.    LENGTH     RATE     RUNOFF      ET       PPT.    METH.  TO SEG.  FROM SEG.    NO.

      1  2.000E+04 3.000E-01 0.000E+00 0.000E+00 0.000E+00    2        0        0        0


         STREAMBED PROPERTIES AND STREAM DIMENSIONS

 SEGMENT     BED HYD. COND.      BED THICKNESS     ELEV.-TOP OF BED     WIDTH OF STREAM     DEPTH OF STREAM    STREAM ROUGHNESS    SAT. WATER CONT.    INT. WATER CONT.    BROOKS/COREY EPS.     UNSAT. HYD. COND.
    No.     UPPER     LOWER     UPPER     LOWER     UPPER     LOWER     UPPER     LOWER     UPPER     LOWER   CHANNEL      BANK     UPPER     LOWER     UPPER     LOWER     UPPER     LOWER     UPPER

     1  3.500E-07 3.500E-07 5.000E-01 5.000E-01 1.400E+02 1.100E+02                                         3.000E-02 4.000E-02 3.000E-01 3.000E-01 1.000E-01 1.000E-01 3.500E+00 3.500E+00 6.000E-06 6.000E-06

  EIGHT POINT CROSS-SECTION DATA FOR SEGMENTS WITH ICALC = 2
    X VALUES X VALUES START FROM LEFT SIDE LOOKING DOWNSTREAM

     SEGMENT NO.        X1        X2        X3        X4        X5        X6        X7        X8
            1      0.000E+00 2.000E+00 4.000E+00 6.000E+00 8.000E+00 1.000E+01 1.200E+01 1.400E+01

    Z VALUES ARE RELATIVE TO STREAMBED ELEVATION

     SEGMENT NO.          Z1        Z2        Z3        Z4        Z5        Z6        Z7        Z8
            1      6.000E+00 4.500E+00 3.500E+00 0.000E+00 3.000E-01 3.500E+00 4.500E+00 6.000E+00



 
 SOLVING FOR HEAD 
                                                   Max.-Head-Change                         Max.-Flux-Residual
  Residual-Control   Outer-Iter.   Inner-Iter.     Column Row Layer    Maximum-Head-Change  Column Row Layer    Maximum-Flux-Residual          L2-NORM 
          0                 1           7           100    4     1      -0.3188978938E+02     100    1    1        -0.1188999901E+03      0.3145862144E+03
          0                 2           2            98    1     1       0.2662410659E+02     100    5    1         0.1824532323E+02      0.6182001942E+02
          0                 3           7            97    4     1      -0.5713007250E+01     100    3    1        -0.1444810292E+01      0.4212220707E+01
          0                 4           2            97    4     1       0.3791823439E+01      97    5    1         0.8454826984E+00      0.5515513979E+01
          0                 5           7            97    4     1      -0.1262321519E+01      98    5    1        -0.5067975064E-01      0.2353545014E+00
          0                 6           2            93    4     1       0.1072752214E+01      97    5    1         0.2669771128E+00      0.1823972433E+01
          0                 7           3            90    1     1       0.6494627143E+00      86    5    1         0.2687759280E-01      0.1375388094E+00
          0                 8           4            90    1     1      -0.4412059313E-01      84    5    1         0.7185425035E-02      0.2407154167E-01
          0                 9           2            89    1     1       0.1525152947E-01      89    1    1         0.3583859688E-02      0.9125521907E-02
          0                10           2            89    1     1      -0.4845426075E-03      89    1    1        -0.1149661437E-03      0.3770228585E-03
                                                   Max.-Head-Change                         Max.-Flux-Residual
  Residual-Control   Outer-Iter.   Inner-Iter.     Column Row Layer    Maximum-Head-Change  Column Row Layer    Maximum-Flux-Residual          L2-NORM 
          0                11           1            82    2     1       0.1159180259E-04      89    1    1         0.2615980392E-05      0.8697784859E-05
          0                12           1            89    7     1      -0.1361243343E-06      89    1    1        -0.3538620774E-07      0.9353407141E-07

    ------------------------------------------------
       NWT REQUIRED           12 OUTER ITERATIONS 
       AND A TOTAL OF         40 INNER ITERATIONS.
    ------------------------------------------------

 NO OUTPUT CONTROL FOR STRESS PERIOD    1   TIME STEP    1
 
 SOLVING FOR HEAD 
                                                   Max.-Head-Change                         Max.-Flux-Residual
  Residual-Control   Outer-Iter.   Inner-Iter.     Column Row Layer    Maximum-Head-Change  Column Row Layer    Maximum-Flux-Residual          L2-NORM 
          0                 1           3            99    6     1      -0.2683210104E+01     100    3    1        -0.5375326999E+01      0.1378350187E+02
          0                 2           2            99    7     1       0.2606439162E+00     100    7    1         0.5384281931E+00      0.1380643352E+01
          0                 3           2            99    7     1      -0.2328254840E-01     100    1    1        -0.4844701300E-01      0.1242373559E+00
          0                 4           2            99    1     1       0.1847615269E-02     100    1    1         0.3880698948E-02      0.9951622910E-02
          0                 5           2            99    1     1      -0.1287106800E-03     100    1    1        -0.2728087870E-03      0.6995922718E-03
          0                 6           1            99    1     1       0.7728729606E-05     100    7    1         0.1653113657E-04      0.4239287482E-04
          0                 7           1            99    1     1      -0.3905291458E-06     100    1    1        -0.8429332752E-06      0.2161644464E-05

    ------------------------------------------------
       NWT REQUIRED            7 OUTER ITERATIONS 
       AND A TOTAL OF         13 INNER ITERATIONS.
    ------------------------------------------------

 NO OUTPUT CONTROL FOR STRESS PERIOD    1   TIME STEP    2
 
 SOLVING FOR HEAD 
                                                   Max.-Head-Change                         Max.-Flux-Residual
  Residual-Control   Outer-Iter.   Inner-Iter.     Column Row Layer    Maximum-Head-Change  Column Row Layer    Maximum-Flux-Residual          L2-NORM 
          0                 1           3            99    7     1      -0.2224851101E+01      99    6    1        -0.5076423415E+00      0.1587300123E+01
          0                 2           3            99    7     1       0.2139036482E+00      99    6    1         0.4863762991E-01      0.1925098452E+00
          0                 3           2            99    1     1      -0.1914233077E-01      99    2    1        -0.4397124158E-02      0.1736040723E-01
          0                 4           2            99    1     1       0.1518856920E-02      99    2    1         0.3520538513E-03      0.1390286865E-02
          0                 5           1            99    1     1      -0.1058080405E-03      99    2    1        -0.2475021113E-04      0.9773719896E-04
          0                 6           1            99    1     1       0.6351669474E-05      99    7    1         0.1499684728E-05      0.5911720551E-05
          0                 7           1            99    1     1      -0.3208406368E-06      99    7    1        -0.7646909239E-07      0.3008352378E-06

    ------------------------------------------------
       NWT REQUIRED            7 OUTER ITERATIONS 
       AND A TOTAL OF         13 INNER ITERATIONS.
    ------------------------------------------------

 NO OUTPUT CONTROL FOR STRESS PERIOD    1   TIME STEP    3
 
 SOLVING FOR HEAD 
                                                   Max.-Head-Change                         Max.-Flux-Residual
  Residual-Control   Outer-Iter.   Inner-Iter.     Column Row Layer    Maximum-Head-Change  Column Row Layer    Maximum-Flux-Residual          L2-NORM 
          0                 1           3            99    7     1      -0.1851836443E+01      99    1    1        -0.3830437269E+00      0.1141183135E+01
          0                 2           2            99    1     1       0.1779762222E+00      99    1    1         0.3677374070E-01      0.1110733669E+00
          0                 3           2            99    1     1      -0.1592387781E-01      99    7    1        -0.3323752685E-02      0.1002416003E-01
          0                 4           2            99    1     1       0.1263511864E-02      99    1    1         0.2661196375E-03      0.8027141604E-03
          0                 5           1            99    1     1      -0.8802057286E-04      99    1    1        -0.1870866382E-04      0.5643140407E-04
          0                 6           1            99    1     1       0.5284873622E-05      99    1    1         0.1133667652E-05      0.3419052783E-05
          0                 7           1            99    1     1      -0.2670102012E-06      99    1    1        -0.5780583834E-07      0.1743120783E-06

    ------------------------------------------------
       NWT REQUIRED            7 OUTER ITERATIONS 
       AND A TOTAL OF         12 INNER ITERATIONS.
    ------------------------------------------------

 NO OUTPUT CONTROL FOR STRESS PERIOD    1   TIME STEP    4
 
 SOLVING FOR HEAD 
                                                   Max.-Head-Change                         Max.-Flux-Residual
  Residual-Control   Outer-Iter.   Inner-Iter.     Column Row Layer    Maximum-Head-Change  Column Row Layer    Maximum-Flux-Residual          L2-NORM 
          0                 1           3            99    7     1      -0.1555225081E+01      99    7    1        -0.2898490006E+00      0.9322716447E+00
          0                 2           3            99    7     1       0.1499558829E+00      99    1    1         0.2792375562E-01      0.9124685991E-01
          0                 3           2            99    1     1      -0.1341230566E-01      99    7    1        -0.2522950009E-02      0.8230246688E-02
          0                 4           2            99    1     1       0.1064262802E-02      99    1    1         0.2020098080E-03      0.6590979296E-03
          0                 5           1            99    1     1      -0.7413944173E-04      99    7    1        -0.1420158794E-04      0.4633481877E-04
          0                 6           1            99    1     1       0.4450892661E-05      99    1    1         0.8605577158E-06      0.2806768946E-05
          0                 7           1            99    1     1      -0.2248459581E-06      99    7    1        -0.4387993258E-07      0.1430661583E-06

    ------------------------------------------------
       NWT REQUIRED            7 OUTER ITERATIONS 
       AND A TOTAL OF         13 INNER ITERATIONS.
    ------------------------------------------------

 NO OUTPUT CONTROL FOR STRESS PERIOD    1   TIME STEP    5
 
 SOLVING FOR HEAD 
                                                   Max.-Head-Change                         Max.-Flux-Residual
  Residual-Control   Outer-Iter.   Inner-Iter.     Column Row Layer    Maximum-Head-Change  Column Row Layer    Maximum-Flux-Residual          L2-NORM 
          0                 1           3            99    7     1      -0.1319854591E+01      99    7    1        -0.2212237849E+00      0.7871956013E+00
          0                 2           3            99    7     1       0.1277219598E+00      99    1    1         0.2139660090E-01      0.8063306668E-01
          0                 3           2            99    1     1      -0.1141967397E-01      99    1    1        -0.1932424255E-02      0.7268365793E-02
          0                 4           2            99    1     1       0.9061793694E-03      99    1    1         0.1547333680E-03      0.5821042987E-03
          0                 5           1            99    1     1      -0.6312608990E-04      99    1    1        -0.1087794468E-04      0.4092188508E-04
          0                 6           1            99    1     1       0.3789146734E-05      99    1    1         0.6591588182E-06      0.2478764466E-05
          0                 7           1            99    1     1      -0.1913952428E-06      99    1    1        -0.3361057921E-07      0.1263475365E-06

    ------------------------------------------------
       NWT REQUIRED            7 OUTER ITERATIONS 
       AND A TOTAL OF         13 INNER ITERATIONS.
    ------------------------------------------------

 NO OUTPUT CONTROL FOR STRESS PERIOD    1   TIME STEP    6
 
 SOLVING FOR HEAD 
                                                   Max.-Head-Change                         Max.-Flux-Residual
  Residual-Control   Outer-Iter.   Inner-Iter.     Column Row Layer    Maximum-Head-Change  Column Row Layer    Maximum-Flux-Residual          L2-NORM 
          0                 1           3            99    7     1      -0.1132697459E+01      99    1    1        -0.1706153331E+00      0.6830294766E+00
          0                 2           3            99    7     1       0.1099300296E+00      99    1    1         0.1656918678E-01      0.6747890697E-01
          0                 3           2            99    1     1      -0.9825639280E-02      99    1    1        -0.1495809905E-02      0.6080727483E-02
          0                 4           2            99    1     1       0.7797154937E-03      99    1    1         0.1197777447E-03      0.4870049082E-03
          0                 5           1            99    1     1      -0.5431661755E-04      99    1    1        -0.8420490040E-05      0.3423632049E-04
          0                 6           1            99    1     1       0.3260740570E-05      99    1    1         0.5102473004E-06      0.2073943510E-05
          0                 7           1            99    1     1      -0.1647236828E-06      99    7    1        -0.2601756677E-07      0.1057168016E-06

    ------------------------------------------------
       NWT REQUIRED            7 OUTER ITERATIONS 
       AND A TOTAL OF         13 INNER ITERATIONS.
    ------------------------------------------------

 NO OUTPUT CONTROL FOR STRESS PERIOD    1   TIME STEP    7
 
 SOLVING FOR HEAD 
                                                   Max.-Head-Change                         Max.-Flux-Residual
  Residual-Control   Outer-Iter.   Inner-Iter.     Column Row Layer    Maximum-Head-Change  Column Row Layer    Maximum-Flux-Residual          L2-NORM 
          0                 1           3            98    7     1      -0.1018107906E+01      99    7    1        -0.1330726238E+00      0.6048649287E+00
          0                 2           3            98    7     1       0.1001433122E+00      99    7    1         0.1297499847E-01      0.5992904719E-01
          0                 3           2            98    1     1      -0.8938355382E-02      99    1    1        -0.1170856367E-02      0.5398817927E-02
          0                 4           2            98    1     1       0.7094024389E-03      99    1    1         0.9376078221E-04      0.4324029321E-03
          0                 5           1            98    1     1      -0.4941440816E-04      99    1    1        -0.6591448397E-05      0.3039769813E-04
          0                 6           1            98    2     1       0.2964280201E-05      99    7    1         0.3994149758E-06      0.1841020239E-05
          0                 7           1            98    2     1      -0.1496523354E-06      99    1    1        -0.2036621893E-07      0.9382524104E-07

    ------------------------------------------------
       NWT REQUIRED            7 OUTER ITERATIONS 
       AND A TOTAL OF         13 INNER ITERATIONS.
    ------------------------------------------------

 NO OUTPUT CONTROL FOR STRESS PERIOD    1   TIME STEP    8
 
 SOLVING FOR HEAD 
                                                   Max.-Head-Change                         Max.-Flux-Residual
  Residual-Control   Outer-Iter.   Inner-Iter.     Column Row Layer    Maximum-Head-Change  Column Row Layer    Maximum-Flux-Residual          L2-NORM 
          0                 1           3            98    7     1      -0.9824722651E+00      98    7    1        -0.1085917721E+00      0.5453760589E+00
          0                 2           3            98    7     1       0.9655880281E-01      98    7    1         0.1074944304E-01      0.5441325985E-01
          0                 3           2            98    1     1      -0.8619171425E-02      98    7    1        -0.9685209774E-03      0.4900855870E-02
          0                 4           2            98    1     1       0.6840657016E-03      98    1    1         0.7756966871E-04      0.3925285624E-03
          0                 5           1            98    2     1      -0.4764912893E-04      98    1    1        -0.5453097845E-05      0.2759449526E-04
          0                 6           1            98    2     1       0.2857526916E-05      98    2    1         0.3304308791E-06      0.1670496875E-05
          0                 7           1            98    2     1      -0.1442013465E-06      98    2    1        -0.1684870909E-07      0.8509115557E-07

    ------------------------------------------------
       NWT REQUIRED            7 OUTER ITERATIONS 
       AND A TOTAL OF         13 INNER ITERATIONS.
    ------------------------------------------------

 NO OUTPUT CONTROL FOR STRESS PERIOD    1   TIME STEP    9
 
 SOLVING FOR HEAD 
                                                   Max.-Head-Change                         Max.-Flux-Residual
  Residual-Control   Outer-Iter.   Inner-Iter.     Column Row Layer    Maximum-Head-Change  Column Row Layer    Maximum-Flux-Residual          L2-NORM 
          0                 1           3            98    7     1      -0.9401081994E+00      98    7    1        -0.9527225074E-01      0.4991029970E+00
          0                 2           3            98    7     1       0.9237559821E-01      98    7    1         0.9417343665E-02      0.5018379387E-01
          0                 3           2            98    1     1      -0.8246128722E-02      98    1    1        -0.8486207326E-03      0.4519201830E-02
          0                 4           2            98    1     1       0.6544565122E-03      98    1    1         0.6796579158E-04      0.3619664918E-03
          0                 5           1            98    2     1      -0.4558831530E-04      98    1    1        -0.4777958431E-05      0.2544599304E-04
          0                 6           1            98    2     1       0.2735371041E-05      98    2    1         0.2895229088E-06      0.1541076102E-05
          0                 7           1            98    2     1      -0.1381183837E-06      98    6    1        -0.1476281142E-07      0.7853322612E-07

    ------------------------------------------------
       NWT REQUIRED            7 OUTER ITERATIONS 
       AND A TOTAL OF         13 INNER ITERATIONS.
    ------------------------------------------------

 OUTPUT CONTROL FOR STRESS PERIOD    1   TIME STEP   10
    PRINT HEAD FOR ALL LAYERS
    SAVE HEAD FOR ALL LAYERS
    PRINT BUDGET
    SAVE BUDGET

            WELLS   PERIOD    1   STEP  10
 WELL      1   LAYER   1   ROW     3   COL    50   RATE    -1.42000    
 WELL      2   LAYER   1   ROW     5   COL    55   RATE    -1.42000    

  HEAD DEP BOUNDS   PERIOD    1   STEP    10
 BOUNDARY      1   LAYER   1   ROW     1   COL   100   RATE   -0.305383    
 BOUNDARY      2   LAYER   1   ROW     2   COL   100   RATE   -0.305271    
 BOUNDARY      3   LAYER   1   ROW     3   COL   100   RATE   -0.301927    
 BOUNDARY      4   LAYER   1   ROW     4   COL   100   RATE   -0.211001    
 BOUNDARY      5   LAYER   1   ROW     5   COL   100   RATE   -0.301927    
 BOUNDARY      6   LAYER   1   ROW     6   COL   100   RATE   -0.305271    
 BOUNDARY      7   LAYER   1   ROW     7   COL   100   RATE   -0.305383    



 STREAM LISTING     PERIOD      1   STEP       10

 LAYER ROW COL. STREAM  RCH.   FLOW INTO    STREAM     FLOW OUT OF   OVRLND.    DIRECT     STREAM      STREAM      STREAM     STREAM  STREAMBED   FLOW TO   CHNG. UNSAT. 
                SEG.NO.  NO.   STRM. RCH.    LOSS       STRM. RCH.   RUNOFF     PRECIP       ET         HEAD        DEPTH      WIDTH  CONDCTNC.   WAT. TAB.

   1    4    1     1     1    3.0000E-01  3.4737E-04   2.9965E-01  0.000E+00  0.000E+00  0.000E+00  1.40279E+02  4.294E-01  2.326E+00  3.737E-04  0.000E+00  3.474E-04
   1    4    2     1     2    2.9965E-01  3.4724E-04   2.9931E-01  0.000E+00  0.000E+00  0.000E+00  1.39979E+02  4.292E-01  2.326E+00  3.737E-04  0.000E+00  3.472E-04
   1    4    3     1     3    2.9931E-01  3.4710E-04   2.9896E-01  0.000E+00  0.000E+00  0.000E+00  1.39679E+02  4.290E-01  2.326E+00  3.736E-04  0.000E+00  3.471E-04
   1    4    4     1     4    2.9896E-01  3.4696E-04   2.9861E-01  0.000E+00  0.000E+00  0.000E+00  1.39379E+02  4.288E-01  2.326E+00  3.735E-04  0.000E+00  3.470E-04
   1    4    5     1     5    2.9861E-01  3.4682E-04   2.9826E-01  0.000E+00  0.000E+00  0.000E+00  1.39079E+02  4.286E-01  2.325E+00  3.735E-04  0.000E+00  3.468E-04
   1    4    6     1     6    2.9826E-01  3.4669E-04   2.9792E-01  0.000E+00  0.000E+00  0.000E+00  1.38778E+02  4.284E-01  2.325E+00  3.734E-04  0.000E+00  3.467E-04
   1    4    7     1     7    2.9792E-01  3.4655E-04   2.9757E-01  0.000E+00  0.000E+00  0.000E+00  1.38478E+02  4.282E-01  2.325E+00  3.733E-04  0.000E+00  3.466E-04
   1    4    8     1     8    2.9757E-01  3.4641E-04   2.9722E-01  0.000E+00  0.000E+00  0.000E+00  1.38178E+02  4.280E-01  2.325E+00  3.733E-04  0.000E+00  3.464E-04
   1    4    9     1     9    2.9722E-01  3.4628E-04   2.9688E-01  0.000E+00  0.000E+00  0.000E+00  1.37878E+02  4.278E-01  2.324E+00  3.732E-04  0.000E+00  3.463E-04
   1    4   10     1    10    2.9688E-01  3.4614E-04   2.9653E-01  0.000E+00  0.000E+00  0.000E+00  1.37578E+02  4.276E-01  2.324E+00  3.732E-04  0.000E+00  3.461E-04
   1    4   11     1    11    2.9653E-01  3.4600E-04   2.9619E-01  0.000E+00  0.000E+00  0.000E+00  1.37277E+02  4.274E-01  2.324E+00  3.731E-04  0.000E+00  3.460E-04
   1    4   12     1    12    2.9619E-01  3.4586E-04   2.9584E-01  0.000E+00  0.000E+00  0.000E+00  1.36977E+02  4.272E-01  2.324E+00  3.730E-04  0.000E+00  3.459E-04
   1    4   13     1    13    2.9584E-01  3.4573E-04   2.9549E-01  0.000E+00  0.000E+00  0.000E+00  1.36677E+02  4.270E-01  2.323E+00  3.730E-04  0.000E+00  3.457E-04
   1    4   14     1    14    2.9549E-01  3.4559E-04   2.9515E-01  0.000E+00  0.000E+00  0.000E+00  1.36377E+02  4.268E-01  2.323E+00  3.729E-04  0.000E+00  3.456E-04
   1    4   15     1    15    2.9515E-01  3.4545E-04   2.9480E-01  0.000E+00  0.000E+00  0.000E+00  1.36077E+02  4.266E-01  2.323E+00  3.728E-04  0.000E+00  3.455E-04
   1    4   16     1    16    2.9480E-01  3.4531E-04   2.9446E-01  0.000E+00  0.000E+00  0.000E+00  1.35776E+02  4.264E-01  2.323E+00  3.728E-04  0.000E+00  3.453E-04
   1    4   17     1    17    2.9446E-01  3.4518E-04   2.9411E-01  0.000E+00  0.000E+00  0.000E+00  1.35476E+02  4.262E-01  2.322E+00  3.727E-04  0.000E+00  3.452E-04
   1    4   18     1    18    2.9411E-01  3.4504E-04   2.9377E-01  0.000E+00  0.000E+00  0.000E+00  1.35176E+02  4.260E-01  2.322E+00  3.726E-04  0.000E+00  3.450E-04
   1    4   19     1    19    2.9377E-01  3.4490E-04   2.9342E-01  0.000E+00  0.000E+00  0.000E+00  1.34876E+02  4.258E-01  2.322E+00  3.726E-04  0.000E+00  3.449E-04
   1    4   20     1    20    2.9342E-01  3.4477E-04   2.9308E-01  0.000E+00  0.000E+00  0.000E+00  1.34576E+02  4.256E-01  2.322E+00  3.725E-04  0.000E+00  3.448E-04
   1    4   21     1    21    2.9308E-01  3.4463E-04   2.9273E-01  0.000E+00  0.000E+00  0.000E+00  1.34275E+02  4.254E-01  2.321E+00  3.724E-04  0.000E+00  3.446E-04
   1    4   22     1    22    2.9273E-01  3.4449E-04   2.9239E-01  0.000E+00  0.000E+00  0.000E+00  1.33975E+02  4.252E-01  2.321E+00  3.724E-04  0.000E+00  3.445E-04
   1    4   23     1    23    2.9239E-01  3.4435E-04   2.9205E-01  0.000E+00  0.000E+00  0.000E+00  1.33675E+02  4.250E-01  2.321E+00  3.723E-04  0.000E+00  3.444E-04
   1    4   24     1    24    2.9205E-01  3.4422E-04   2.9170E-01  0.000E+00  0.000E+00  0.000E+00  1.33375E+02  4.248E-01  2.321E+00  3.722E-04  0.000E+00  3.442E-04
   1    4   25     1    25    2.9170E-01  3.4408E-04   2.9136E-01  0.000E+00  0.000E+00  0.000E+00  1.33075E+02  4.246E-01  2.320E+00  3.722E-04  0.000E+00  3.441E-04
   1    4   26     1    26    2.9136E-01  3.4394E-04   2.9101E-01  0.000E+00  0.000E+00  0.000E+00  1.32774E+02  4.244E-01  2.320E+00  3.721E-04  0.000E+00  3.439E-04
   1    4   27     1    27    2.9101E-01  3.4381E-04   2.9067E-01  0.000E+00  0.000E+00  0.000E+00  1.32474E+02  4.242E-01  2.320E+00  3.720E-04  0.000E+00  3.438E-04
   1    4   28     1    28    2.9067E-01  3.4367E-04   2.9033E-01  0.000E+00  0.000E+00  0.000E+00  1.32174E+02  4.240E-01  2.320E+00  3.720E-04  0.000E+00  3.437E-04
   1    4   29     1    29    2.9033E-01  3.4353E-04   2.8998E-01  0.000E+00  0.000E+00  0.000E+00  1.31874E+02  4.237E-01  2.319E+00  3.719E-04  0.000E+00  3.435E-04
   1    4   30     1    30    2.8998E-01  3.4339E-04   2.8964E-01  0.000E+00  0.000E+00  0.000E+00  1.31574E+02  4.235E-01  2.319E+00  3.718E-04  0.000E+00  3.434E-04
   1    4   31     1    31    2.8964E-01  3.4326E-04   2.8930E-01  0.000E+00  0.000E+00  0.000E+00  1.31273E+02  4.233E-01  2.319E+00  3.718E-04  0.000E+00  3.433E-04
   1    4   32     1    32    2.8930E-01  3.4312E-04   2.8895E-01  0.000E+00  0.000E+00  0.000E+00  1.30973E+02  4.231E-01  2.319E+00  3.717E-04  0.000E+00  3.431E-04
   1    4   33     1    33    2.8895E-01  3.4298E-04   2.8861E-01  0.000E+00  0.000E+00  0.000E+00  1.30673E+02  4.229E-01  2.319E+00  3.716E-04  0.000E+00  3.430E-04
   1    4   34     1    34    2.8861E-01  3.4285E-04   2.8827E-01  0.000E+00  0.000E+00  0.000E+00  1.30373E+02  4.227E-01  2.318E+00  3.716E-04  0.000E+00  3.428E-04
   1    4   35     1    35    2.8827E-01  3.4271E-04   2.8792E-01  0.000E+00  0.000E+00  0.000E+00  1.30073E+02  4.225E-01  2.318E+00  3.715E-04  0.000E+00  3.427E-04
   1    4   36     1    36    2.8792E-01  3.4257E-04   2.8758E-01  0.000E+00  0.000E+00  0.000E+00  1.29772E+02  4.223E-01  2.318E+00  3.714E-04  0.000E+00  3.426E-04
   1    4   37     1    37    2.8758E-01  3.4244E-04   2.8724E-01  0.000E+00  0.000E+00  0.000E+00  1.29472E+02  4.221E-01  2.318E+00  3.714E-04  0.000E+00  3.424E-04
   1    4   38     1    38    2.8724E-01  3.4230E-04   2.8690E-01  0.000E+00  0.000E+00  0.000E+00  1.29172E+02  4.219E-01  2.317E+00  3.713E-04  0.000E+00  3.423E-04
   1    4   39     1    39    2.8690E-01  3.4216E-04   2.8655E-01  0.000E+00  0.000E+00  0.000E+00  1.28872E+02  4.217E-01  2.317E+00  3.712E-04  0.000E+00  3.422E-04
   1    4   40     1    40    2.8655E-01  3.4203E-04   2.8621E-01  0.000E+00  0.000E+00  0.000E+00  1.28572E+02  4.215E-01  2.317E+00  3.712E-04  0.000E+00  3.420E-04
   1    4   41     1    41    2.8621E-01  3.4189E-04   2.8587E-01  0.000E+00  0.000E+00  0.000E+00  1.28271E+02  4.213E-01  2.317E+00  3.711E-04  0.000E+00  3.419E-04
   1    4   42     1    42    2.8587E-01  3.4175E-04   2.8553E-01  0.000E+00  0.000E+00  0.000E+00  1.27971E+02  4.211E-01  2.316E+00  3.710E-04  0.000E+00  3.418E-04
   1    4   43     1    43    2.8553E-01  3.4162E-04   2.8519E-01  0.000E+00  0.000E+00  0.000E+00  1.27671E+02  4.209E-01  2.316E+00  3.710E-04  0.000E+00  3.416E-04
   1    4   44     1    44    2.8519E-01  3.4148E-04   2.8485E-01  0.000E+00  0.000E+00  0.000E+00  1.27371E+02  4.207E-01  2.316E+00  3.709E-04  0.000E+00  3.415E-04
   1    4   45     1    45    2.8485E-01  3.4134E-04   2.8450E-01  0.000E+00  0.000E+00  0.000E+00  1.27070E+02  4.205E-01  2.316E+00  3.708E-04  0.000E+00  3.413E-04
   1    4   46     1    46    2.8450E-01  3.4121E-04   2.8416E-01  0.000E+00  0.000E+00  0.000E+00  1.26770E+02  4.203E-01  2.315E+00  3.708E-04  0.000E+00  3.412E-04
   1    4   47     1    47    2.8416E-01  3.4107E-04   2.8382E-01  0.000E+00  0.000E+00  0.000E+00  1.26470E+02  4.201E-01  2.315E+00  3.707E-04  0.000E+00  3.411E-04
   1    4   48     1    48    2.8382E-01  3.4093E-04   2.8348E-01  0.000E+00  0.000E+00  0.000E+00  1.26170E+02  4.199E-01  2.315E+00  3.706E-04  0.000E+00  3.409E-04
   1    4   49     1    49    2.8348E-01  3.4080E-04   2.8314E-01  0.000E+00  0.000E+00  0.000E+00  1.25870E+02  4.197E-01  2.315E+00  3.706E-04  0.000E+00  3.408E-04
   1    4   50     1    50    2.8314E-01  3.4066E-04   2.8280E-01  0.000E+00  0.000E+00  0.000E+00  1.25569E+02  4.195E-01  2.314E+00  3.705E-04  0.000E+00  3.407E-04
   1    4   51     1    51    2.8280E-01  3.4052E-04   2.8246E-01  0.000E+00  0.000E+00  0.000E+00  1.25269E+02  4.193E-01  2.314E+00  3.704E-04  0.000E+00  3.405E-04
   1    4   52     1    52    2.8246E-01  3.4039E-04   2.8212E-01  0.000E+00  0.000E+00  0.000E+00  1.24969E+02  4.191E-01  2.314E+00  3.704E-04  0.000E+00  3.404E-04
   1    4   53     1    53    2.8212E-01  3.4025E-04   2.8178E-01  0.000E+00  0.000E+00  0.000E+00  1.24669E+02  4.189E-01  2.314E+00  3.703E-04  0.000E+00  3.402E-04
   1    4   54     1    54    2.8178E-01  3.4011E-04   2.8144E-01  0.000E+00  0.000E+00  0.000E+00  1.24369E+02  4.187E-01  2.313E+00  3.702E-04  0.000E+00  3.401E-04
   1    4   55     1    55    2.8144E-01  3.3998E-04   2.8110E-01  0.000E+00  0.000E+00  0.000E+00  1.24068E+02  4.185E-01  2.313E+00  3.702E-04  0.000E+00  3.400E-04
   1    4   56     1    56    2.8110E-01  3.3984E-04   2.8076E-01  0.000E+00  0.000E+00  0.000E+00  1.23768E+02  4.182E-01  2.313E+00  3.701E-04  0.000E+00  3.398E-04
   1    4   57     1    57    2.8076E-01  3.3970E-04   2.8042E-01  0.000E+00  0.000E+00  0.000E+00  1.23468E+02  4.180E-01  2.313E+00  3.700E-04  0.000E+00  3.397E-04
   1    4   58     1    58    2.8042E-01  3.3957E-04   2.8008E-01  0.000E+00  0.000E+00  0.000E+00  1.23168E+02  4.178E-01  2.312E+00  3.700E-04  0.000E+00  3.396E-04
   1    4   59     1    59    2.8008E-01  3.3943E-04   2.7974E-01  0.000E+00  0.000E+00  0.000E+00  1.22868E+02  4.176E-01  2.312E+00  3.699E-04  0.000E+00  3.394E-04
   1    4   60     1    60    2.7974E-01  3.3929E-04   2.7940E-01  0.000E+00  0.000E+00  0.000E+00  1.22567E+02  4.174E-01  2.312E+00  3.698E-04  0.000E+00  3.393E-04
   1    4   61     1    61    2.7940E-01  3.3916E-04   2.7906E-01  0.000E+00  0.000E+00  0.000E+00  1.22267E+02  4.172E-01  2.312E+00  3.698E-04  0.000E+00  3.392E-04
   1    4   62     1    62    2.7906E-01  3.3902E-04   2.7872E-01  0.000E+00  0.000E+00  0.000E+00  1.21967E+02  4.170E-01  2.311E+00  3.697E-04  0.000E+00  3.390E-04
   1    4   63     1    63    2.7872E-01  3.3889E-04   2.7838E-01  0.000E+00  0.000E+00  0.000E+00  1.21667E+02  4.168E-01  2.311E+00  3.696E-04  0.000E+00  3.389E-04
   1    4   64     1    64    2.7838E-01  3.3875E-04   2.7804E-01  0.000E+00  0.000E+00  0.000E+00  1.21367E+02  4.166E-01  2.311E+00  3.696E-04  0.000E+00  3.387E-04
   1    4   65     1    65    2.7804E-01  3.3861E-04   2.7771E-01  0.000E+00  0.000E+00  0.000E+00  1.21066E+02  4.164E-01  2.311E+00  3.695E-04  0.000E+00  3.386E-04
   1    4   66     1    66    2.7771E-01  3.3848E-04   2.7737E-01  0.000E+00  0.000E+00  0.000E+00  1.20766E+02  4.162E-01  2.310E+00  3.694E-04  0.000E+00  3.385E-04
   1    4   67     1    67    2.7737E-01  3.3834E-04   2.7703E-01  0.000E+00  0.000E+00  0.000E+00  1.20466E+02  4.160E-01  2.310E+00  3.694E-04  0.000E+00  3.383E-04
   1    4   68     1    68    2.7703E-01  3.3820E-04   2.7669E-01  0.000E+00  0.000E+00  0.000E+00  1.20166E+02  4.158E-01  2.310E+00  3.693E-04  0.000E+00  3.382E-04
   1    4   69     1    69    2.7669E-01  3.3807E-04   2.7635E-01  0.000E+00  0.000E+00  0.000E+00  1.19866E+02  4.156E-01  2.310E+00  3.692E-04  0.000E+00  3.381E-04
   1    4   70     1    70    2.7635E-01  3.3793E-04   2.7601E-01  0.000E+00  0.000E+00  0.000E+00  1.19565E+02  4.154E-01  2.309E+00  3.692E-04  0.000E+00  3.379E-04
   1    4   71     1    71    2.7601E-01  3.3779E-04   2.7568E-01  0.000E+00  0.000E+00  0.000E+00  1.19265E+02  4.152E-01  2.309E+00  3.691E-04  0.000E+00  3.378E-04
   1    4   72     1    72    2.7568E-01  3.3766E-04   2.7534E-01  0.000E+00  0.000E+00  0.000E+00  1.18965E+02  4.150E-01  2.309E+00  3.690E-04  0.000E+00  3.377E-04
   1    4   73     1    73    2.7534E-01  3.3752E-04   2.7500E-01  0.000E+00  0.000E+00  0.000E+00  1.18665E+02  4.148E-01  2.309E+00  3.690E-04  0.000E+00  3.375E-04
   1    4   74     1    74    2.7500E-01  3.3739E-04   2.7466E-01  0.000E+00  0.000E+00  0.000E+00  1.18365E+02  4.146E-01  2.309E+00  3.689E-04  0.000E+00  3.374E-04
   1    4   75     1    75    2.7466E-01  3.3725E-04   2.7433E-01  0.000E+00  0.000E+00  0.000E+00  1.18064E+02  4.144E-01  2.308E+00  3.688E-04  0.000E+00  3.373E-04
   1    4   76     1    76    2.7433E-01  3.3711E-04   2.7399E-01  0.000E+00  0.000E+00  0.000E+00  1.17764E+02  4.142E-01  2.308E+00  3.688E-04  0.000E+00  3.371E-04
[...]
   1    4   31     1    31    8.8335E-01  5.5210E-04   8.8280E-01  0.000E+00  0.000E+00  0.000E+00  1.31547E+02  6.972E-01  2.647E+00  4.611E-04  3.201E-04  2.320E-04
   1    4   32     1    32    8.8280E-01  5.5192E-04   8.8225E-01  0.000E+00  0.000E+00  0.000E+00  1.31247E+02  6.970E-01  2.646E+00  4.611E-04  3.596E-04  1.923E-04
   1    4   33     1    33    8.8225E-01  5.5174E-04   8.8170E-01  0.000E+00  0.000E+00  0.000E+00  1.30947E+02  6.968E-01  2.646E+00  4.610E-04  4.347E-04  1.170E-04
   1    4   34     1    34    8.8170E-01  5.5156E-04   8.8115E-01  0.000E+00  0.000E+00  0.000E+00  1.30647E+02  6.966E-01  2.646E+00  4.609E-04  5.146E-04  3.695E-05
   1    4   35     1    35    8.8115E-01  5.5138E-04   8.8059E-01  0.000E+00  0.000E+00  0.000E+00  1.30346E+02  6.964E-01  2.646E+00  4.609E-04  5.475E-04  3.911E-06
   1    4   36     1    36    8.8059E-01  5.5121E-04   8.8004E-01  0.000E+00  0.000E+00  0.000E+00  1.30046E+02  6.962E-01  2.645E+00  4.608E-04  5.484E-04  2.793E-06
   1    4   37     1    37    8.8004E-01  5.5103E-04   8.7949E-01  0.000E+00  0.000E+00  0.000E+00  1.29746E+02  6.960E-01  2.645E+00  4.607E-04  5.493E-04  1.753E-06
   1    4   38     1    38    8.7949E-01  5.5085E-04   8.7894E-01  0.000E+00  0.000E+00  0.000E+00  1.29446E+02  6.958E-01  2.645E+00  4.607E-04  5.978E-04 -4.694E-05
   1    4   39     1    39    8.7894E-01  5.5067E-04   8.7839E-01  0.000E+00  0.000E+00  0.000E+00  1.29146E+02  6.956E-01  2.645E+00  4.606E-04  6.093E-04 -5.860E-05
   1    4   40     1    40    8.7839E-01  5.5049E-04   8.7784E-01  0.000E+00  0.000E+00  0.000E+00  1.28845E+02  6.954E-01  2.644E+00  4.605E-04  6.103E-04 -5.985E-05
   1    4   41     1    41    8.7784E-01  5.5031E-04   8.7729E-01  0.000E+00  0.000E+00  0.000E+00  1.28545E+02  6.951E-01  2.644E+00  4.605E-04  6.113E-04 -6.103E-05
   1    4   42     1    42    8.7729E-01  5.5013E-04   8.7674E-01  0.000E+00  0.000E+00  0.000E+00  1.28245E+02  6.949E-01  2.644E+00  4.604E-04  6.122E-04 -6.211E-05
   1    4   43     1    43    8.7674E-01  5.4995E-04   8.7619E-01  0.000E+00  0.000E+00  0.000E+00  1.27945E+02  6.947E-01  2.644E+00  4.603E-04  6.130E-04 -6.300E-05
   1    4   44     1    44    8.7619E-01  5.4977E-04   8.7564E-01  0.000E+00  0.000E+00  0.000E+00  1.27645E+02  6.945E-01  2.643E+00  4.602E-04  6.134E-04 -6.365E-05
   1    4   45     1    45    8.7564E-01  5.4959E-04   8.7509E-01  0.000E+00  0.000E+00  0.000E+00  1.27344E+02  6.943E-01  2.643E+00  4.602E-04  6.227E-04 -7.309E-05
   1    4   46     1    46    8.7509E-01  5.4941E-04   8.7454E-01  0.000E+00  0.000E+00  0.000E+00  1.27044E+02  6.941E-01  2.643E+00  4.601E-04  6.219E-04 -7.250E-05
   1    4   47     1    47    8.7454E-01  5.4924E-04   8.7399E-01  0.000E+00  0.000E+00  0.000E+00  1.26744E+02  6.939E-01  2.643E+00  4.600E-04  7.064E-04 -1.572E-04
   1    4   48     1    48    8.7399E-01  5.4906E-04   8.7344E-01  0.000E+00  0.000E+00  0.000E+00  1.26444E+02  6.937E-01  2.642E+00  4.600E-04  8.957E-04 -3.466E-04
   1    4   49     1    49    8.7344E-01  5.4888E-04   8.7289E-01  0.000E+00  0.000E+00  0.000E+00  1.26143E+02  6.935E-01  2.642E+00  4.599E-04  8.992E-04 -3.501E-04
   1    4   50     1    50    8.7289E-01  5.4870E-04   8.7234E-01  0.000E+00  0.000E+00  0.000E+00  1.25843E+02  6.932E-01  2.642E+00  4.598E-04  9.059E-04 -3.570E-04
   1    4   51     1    51    8.7234E-01  5.4852E-04   8.7180E-01  0.000E+00  0.000E+00  0.000E+00  1.25543E+02  6.930E-01  2.642E+00  4.598E-04  8.976E-04 -3.489E-04
   1    4   52     1    52    8.7180E-01  5.4834E-04   8.7125E-01  0.000E+00  0.000E+00  0.000E+00  1.25243E+02  6.928E-01  2.641E+00  4.597E-04  8.955E-04 -3.469E-04
   1    4   53     1    53    8.7125E-01  5.4816E-04   8.7070E-01  0.000E+00  0.000E+00  0.000E+00  1.24943E+02  6.926E-01  2.641E+00  4.596E-04  8.964E-04 -3.480E-04
   1    4   54     1    54    8.7070E-01  5.4798E-04   8.7015E-01  0.000E+00  0.000E+00  0.000E+00  1.24642E+02  6.924E-01  2.641E+00  4.596E-04  8.994E-04 -3.512E-04
   1    4   55     1    55    8.7015E-01  5.4781E-04   8.6960E-01  0.000E+00  0.000E+00  0.000E+00  1.24342E+02  6.922E-01  2.641E+00  4.595E-04  9.070E-04 -3.589E-04
   1    4   56     1    56    8.6960E-01  5.4763E-04   8.6906E-01  0.000E+00  0.000E+00  0.000E+00  1.24042E+02  6.920E-01  2.640E+00  4.594E-04  9.021E-04 -3.543E-04
   1    4   57     1    57    8.6906E-01  5.4745E-04   8.6851E-01  0.000E+00  0.000E+00  0.000E+00  1.23742E+02  6.918E-01  2.640E+00  4.594E-04  8.998E-04 -3.522E-04
   1    4   58     1    58    8.6851E-01  5.4727E-04   8.6796E-01  0.000E+00  0.000E+00  0.000E+00  1.23442E+02  6.916E-01  2.640E+00  4.593E-04  7.407E-04 -1.934E-04
   1    4   59     1    59    8.6796E-01  5.4709E-04   8.6741E-01  0.000E+00  0.000E+00  0.000E+00  1.23141E+02  6.914E-01  2.640E+00  4.592E-04  6.262E-04 -7.914E-05
   1    4   60     1    60    8.6741E-01  5.4691E-04   8.6687E-01  0.000E+00  0.000E+00  0.000E+00  1.22841E+02  6.911E-01  2.639E+00  4.592E-04  6.272E-04 -8.027E-05
   1    4   61     1    61    8.6687E-01  5.4674E-04   8.6632E-01  0.000E+00  0.000E+00  0.000E+00  1.22541E+02  6.909E-01  2.639E+00  4.591E-04  6.269E-04 -8.021E-05
   1    4   62     1    62    8.6632E-01  5.4656E-04   8.6577E-01  0.000E+00  0.000E+00  0.000E+00  1.22241E+02  6.907E-01  2.639E+00  4.590E-04  6.264E-04 -7.980E-05
   1    4   63     1    63    8.6577E-01  5.4638E-04   8.6523E-01  0.000E+00  0.000E+00  0.000E+00  1.21941E+02  6.905E-01  2.639E+00  4.589E-04  6.172E-04 -7.078E-05
   1    4   64     1    64    8.6523E-01  5.4620E-04   8.6468E-01  0.000E+00  0.000E+00  0.000E+00  1.21640E+02  6.903E-01  2.638E+00  4.589E-04  6.163E-04 -7.008E-05
   1    4   65     1    65    8.6468E-01  5.4602E-04   8.6414E-01  0.000E+00  0.000E+00  0.000E+00  1.21340E+02  6.901E-01  2.638E+00  4.588E-04  6.153E-04 -6.928E-05
   1    4   66     1    66    8.6414E-01  5.4585E-04   8.6359E-01  0.000E+00  0.000E+00  0.000E+00  1.21040E+02  6.899E-01  2.638E+00  4.587E-04  6.143E-04 -6.844E-05
   1    4   67     1    67    8.6359E-01  5.4567E-04   8.6304E-01  0.000E+00  0.000E+00  0.000E+00  1.20740E+02  6.897E-01  2.638E+00  4.587E-04  5.881E-04 -4.246E-05
   1    4   68     1    68    8.6304E-01  5.4549E-04   8.6250E-01  0.000E+00  0.000E+00  0.000E+00  1.20439E+02  6.895E-01  2.637E+00  4.586E-04  5.648E-04 -1.935E-05
   1    4   69     1    69    8.6250E-01  5.4531E-04   8.6195E-01  0.000E+00  0.000E+00  0.000E+00  1.20139E+02  6.892E-01  2.637E+00  4.585E-04  5.534E-04 -8.084E-06
   1    4   70     1    70    8.6195E-01  5.4513E-04   8.6141E-01  0.000E+00  0.000E+00  0.000E+00  1.19839E+02  6.890E-01  2.637E+00  4.585E-04  4.376E-04  1.076E-04
   1    4   71     1    71    8.6141E-01  5.4496E-04   8.6086E-01  0.000E+00  0.000E+00  0.000E+00  1.19539E+02  6.888E-01  2.637E+00  4.584E-04  3.298E-04  2.151E-04
   1    4   72     1    72    8.6086E-01  5.4478E-04   8.6032E-01  0.000E+00  0.000E+00  0.000E+00  1.19239E+02  6.886E-01  2.636E+00  4.583E-04  3.298E-04  2.150E-04
   1    4   73     1    73    8.6032E-01  5.4460E-04   8.5977E-01  0.000E+00  0.000E+00  0.000E+00  1.18938E+02  6.884E-01  2.636E+00  4.583E-04  3.299E-04  2.147E-04
   1    4   74     1    74    8.5977E-01  5.4442E-04   8.5923E-01  0.000E+00  0.000E+00  0.000E+00  1.18638E+02  6.882E-01  2.636E+00  4.582E-04  3.298E-04  2.146E-04
   1    4   75     1    75    8.5923E-01  5.4424E-04   8.5869E-01  0.000E+00  0.000E+00  0.000E+00  1.18338E+02  6.880E-01  2.636E+00  4.581E-04  3.297E-04  2.145E-04
   1    4   76     1    76    8.5869E-01  5.4407E-04   8.5814E-01  0.000E+00  0.000E+00  0.000E+00  1.18038E+02  6.878E-01  2.635E+00  4.581E-04  3.297E-04  2.144E-04
   1    4   77     1    77    8.5814E-01  5.4389E-04   8.5760E-01  0.000E+00  0.000E+00  0.000E+00  1.17738E+02  6.876E-01  2.635E+00  4.580E-04  3.296E-04  2.142E-04
   1    4   78     1    78    8.5760E-01  5.4371E-04   8.5705E-01  0.000E+00  0.000E+00  0.000E+00  1.17437E+02  6.874E-01  2.635E+00  4.579E-04  3.297E-04  2.141E-04
   1    4   79     1    79    8.5705E-01  5.4353E-04   8.5651E-01  0.000E+00  0.000E+00  0.000E+00  1.17137E+02  6.871E-01  2.635E+00  4.578E-04  3.297E-04  2.138E-04
   1    4   80     1    80    8.5651E-01  5.4336E-04   8.5597E-01  0.000E+00  0.000E+00  0.000E+00  1.16837E+02  6.869E-01  2.634E+00  4.578E-04  3.298E-04  2.135E-04
   1    4   81     1    81    8.5597E-01  5.4318E-04   8.5542E-01  0.000E+00  0.000E+00  0.000E+00  1.16537E+02  6.867E-01  2.634E+00  4.577E-04  3.244E-04  2.188E-04
   1    4   82     1    82    8.5542E-01  5.4300E-04   8.5488E-01  0.000E+00  0.000E+00  0.000E+00  1.16237E+02  6.865E-01  2.634E+00  4.576E-04  3.213E-04  2.217E-04
   1    4   83     1    83    8.5488E-01  5.4282E-04   8.5434E-01  0.000E+00  0.000E+00  0.000E+00  1.15936E+02  6.863E-01  2.634E+00  4.576E-04  3.205E-04  2.223E-04
   1    4   84     1    84    8.5434E-01  5.4265E-04   8.5379E-01  0.000E+00  0.000E+00  0.000E+00  1.15636E+02  6.861E-01  2.633E+00  4.575E-04  3.137E-04  2.290E-04
   1    4   85     1    85    8.5379E-01  5.4247E-04   8.5325E-01  0.000E+00  0.000E+00  0.000E+00  1.15336E+02  6.859E-01  2.633E+00  4.574E-04  3.140E-04  2.285E-04
   1    4   86     1    86    8.5325E-01  5.4229E-04   8.5271E-01  0.000E+00  0.000E+00  0.000E+00  1.15036E+02  6.857E-01  2.633E+00  4.574E-04  3.143E-04  2.280E-04
   1    4   87     1    87    8.5271E-01  5.4212E-04   8.5217E-01  0.000E+00  0.000E+00  0.000E+00  1.14735E+02  6.855E-01  2.633E+00  4.573E-04  3.146E-04  2.275E-04
   1    4   88     1    88    8.5217E-01  5.4194E-04   8.5163E-01  0.000E+00  0.000E+00  0.000E+00  1.14435E+02  6.853E-01  2.632E+00  4.572E-04  3.150E-04  2.270E-04
   1    4   89     1    89    8.5163E-01  5.4176E-04   8.5108E-01  0.000E+00  0.000E+00  0.000E+00  1.14135E+02  6.850E-01  2.632E+00  4.572E-04  3.153E-04  2.264E-04
   1    4   90     1    90    8.5108E-01  5.4158E-04   8.5054E-01  0.000E+00  0.000E+00  0.000E+00  1.13835E+02  6.848E-01  2.632E+00  4.571E-04  2.881E-04  2.535E-04
   1    4   91     1    91    8.5054E-01  5.4141E-04   8.5000E-01  0.000E+00  0.000E+00  0.000E+00  1.13535E+02  6.846E-01  2.632E+00  4.570E-04  2.139E-04  3.275E-04
   1    4   92     1    92    8.5000E-01  5.4123E-04   8.4946E-01  0.000E+00  0.000E+00  0.000E+00  1.13234E+02  6.844E-01  2.631E+00  4.570E-04  1.565E-04  3.847E-04
   1    4   93     1    93    8.4946E-01  5.4105E-04   8.4892E-01  0.000E+00  0.000E+00  0.000E+00  1.12934E+02  6.842E-01  2.631E+00  4.569E-04  1.574E-04  3.837E-04
   1    4   94     1    94    8.4892E-01  5.4088E-04   8.4838E-01  0.000E+00  0.000E+00  0.000E+00  1.12634E+02  6.840E-01  2.631E+00  4.568E-04  1.583E-04  3.825E-04
   1    4   95     1    95    8.4838E-01  5.4070E-04   8.4784E-01  0.000E+00  0.000E+00  0.000E+00  1.12334E+02  6.838E-01  2.631E+00  4.568E-04  1.593E-04  3.814E-04
   1    4   96     1    96    8.4784E-01  5.4052E-04   8.4730E-01  0.000E+00  0.000E+00  0.000E+00  1.12034E+02  6.836E-01  2.630E+00  4.567E-04  1.603E-04  3.803E-04
   1    4   97     1    97    8.4730E-01  5.4035E-04   8.4676E-01  0.000E+00  0.000E+00  0.000E+00  1.11733E+02  6.834E-01  2.630E+00  4.566E-04  1.613E-04  3.790E-04
   1    4   98     1    98    8.4676E-01  5.4017E-04   8.4622E-01  0.000E+00  0.000E+00  0.000E+00  1.11433E+02  6.832E-01  2.630E+00  4.565E-04  1.624E-04  3.777E-04
   1    4   99     1    99    8.4622E-01  5.3999E-04   8.4568E-01  0.000E+00  0.000E+00  0.000E+00  1.11133E+02  6.830E-01  2.630E+00  4.565E-04  1.636E-04  3.764E-04
   1    4  100     1   100    8.4568E-01  5.3982E-04   8.4514E-01  0.000E+00  0.000E+00  0.000E+00  1.10833E+02  6.827E-01  2.629E+00  4.564E-04  1.647E-04  3.751E-04



1
  VOLUMETRIC BUDGET FOR UNSATURATED ZONE BENEATH STREAMS AT END OF TIME STEP    30 STRESS PERIOD  50
  ------------------------------------------------------------------------------------------------

    CUMULATIVE VOLUMES             L**3    RATES FOR THIS TIME STEP         L**3/T
    ------------------                     ------------------------


          STREAM LOSS =     35725148.0000            STREAM LOSS =        5.4863E-02
    CHANGE IN STORAGE =      1091747.6250      CHANGE IN STORAGE =        1.1257E-02
       RECHARGE TO GW =     34642948.0000         RECHARGE TO GW =        4.3608E-02

             TOTAL IN =     35725148.0000               TOTAL IN =        5.4863E-02

            TOTAL OUT =     35734696.0000              TOTAL OUT =        5.4865E-02

             IN - OUT =        -9548.0000               IN - OUT =       -1.8068E-06

  PERCENT DISCREPANCY =           -0.01      PERCENT DISCREPANCY =            -0.00



1
              HEAD IN LAYER 1 AT END OF TIME STEP 30 IN STRESS PERIOD 50
  ---------------------------------------------------------------------------

          1      2      3      4      5      6      7      8      9     10
         11     12     13     14     15     16     17     18     19     20
         21     22     23     24     25     26     27     28     29     30
         31     32     33     34     35     36     37     38     39     40
         41     42     43     44     45     46     47     48     49     50
         51     52     53     54     55     56     57     58     59     60
         61     62     63     64     65     66     67     68     69     70
         71     72     73     74     75     76     77     78     79     80
         81     82     83     84     85     86     87     88     89     90
         91     92     93     94     95     96     97     98     99    100
 .........................................................................
   1  80.0 80.0 79.9 79.8 79.7 79.5 79.3 79.0 78.7 78.4
      78.0 77.6 77.2 76.7 76.2 75.6 75.0 74.4 73.7 73.0
      72.2 71.4 70.6 69.6 68.7 67.7 66.6 65.5 64.3 63.1
      61.8 60.5 59.0 57.5 56.0 54.3 52.6 50.7 48.8 46.7
      44.5 42.1 39.6 36.9 33.9 30.6 26.8 22.4 17.1 11.1
      10.4 10.7 10.9 11.3 12.8 16.3 20.0 23.5 26.6 29.4
      32.0 34.3 36.5 38.6 40.5 42.3 44.0 45.6 47.2 48.7
      50.1 51.4 52.7 53.9 55.1 56.3 57.4 58.4 59.4 60.4
      61.4 62.3 63.2 64.0 64.9 65.7 66.5 67.2 67.9 68.7
      69.4 70.0 70.7 71.3 72.0 72.6 73.2 73.8 74.4 75.0
   2  80.0 80.0 79.9 79.8 79.7 79.5 79.3 79.0 78.7 78.4
      78.0 77.6 77.2 76.7 76.2 75.6 75.0 74.4 73.7 73.0
      72.2 71.4 70.6 69.6 68.7 67.7 66.6 65.5 64.3 63.1
      61.8 60.5 59.0 57.5 56.0 54.3 52.6 50.7 48.8 46.7
      44.5 42.1 39.6 36.9 33.9 30.6 26.8 22.4 16.9 9.3
      10.2 10.7 10.8 11.0 12.2 16.0 19.9 23.5 26.6 29.4
      32.0 34.3 36.5 38.6 40.5 42.3 44.0 45.6 47.2 48.7
      50.1 51.4 52.7 53.9 55.1 56.3 57.4 58.4 59.4 60.4
      61.4 62.3 63.2 64.0 64.9 65.7 66.5 67.2 67.9 68.7
      69.4 70.0 70.7 71.3 72.0 72.6 73.2 73.8 74.4 75.0
   3  80.0 80.0 79.9 79.8 79.7 79.5 79.3 79.0 78.7 78.4
      78.0 77.6 77.2 76.7 76.2 75.6 75.0 74.4 73.7 73.0
      72.2 71.4 70.6 69.6 68.7 67.7 66.6 65.5 64.3 63.1
      61.8 60.5 59.0 57.5 56.0 54.3 52.6 50.7 48.8 46.7
      44.5 42.1 39.6 36.9 33.9 30.6 26.9 22.5 16.7 4.3
      10.0 10.7 10.7 10.5 10.8 15.6 19.8 23.4 26.6 29.4
      32.0 34.3 36.5 38.6 40.5 42.3 44.0 45.6 47.2 48.7
      50.1 51.4 52.7 53.9 55.1 56.3 57.4 58.4 59.4 60.4
      61.4 62.3 63.2 64.0 64.9 65.7 66.5 67.2 67.9 68.7
      69.4 70.0 70.7 71.3 72.0 72.6 73.2 73.8 74.4 75.0
   4  80.0 80.0 79.9 79.8 79.7 79.5 79.3 79.0 78.7 78.4
      78.0 77.6 77.2 76.7 76.2 75.6 75.0 74.4 73.7 73.0
      72.2 71.4 70.6 69.6 68.7 67.7 66.6 65.5 64.3 63.1
      61.8 60.5 59.0 57.5 56.0 54.3 52.6 50.7 48.8 46.7
      44.5 42.1 39.6 36.9 33.9 30.6 26.9 22.6 17.2 9.5
      10.7 10.8 10.6 9.9 8.4 15.0 19.7 23.4 26.6 29.4
      32.0 34.3 36.5 38.6 40.5 42.3 44.0 45.7 47.2 48.7
      50.1 51.4 52.7 53.9 55.1 56.3 57.4 58.4 59.4 60.4
      61.4 62.3 63.2 64.0 64.9 65.7 66.5 67.2 68.0 68.7
      69.4 70.0 70.7 71.4 72.0 72.6 73.2 73.8 74.4 75.0
   5  80.0 80.0 79.9 79.8 79.7 79.5 79.3 79.0 78.7 78.4
      78.0 77.6 77.2 76.7 76.2 75.6 75.0 74.4 73.7 73.0
      72.2 71.4 70.6 69.6 68.7 67.7 66.6 65.5 64.3 63.1
      61.8 60.5 59.0 57.5 56.0 54.3 52.6 50.7 48.8 46.7
      44.5 42.1 39.6 36.9 33.9 30.6 26.9 22.7 17.8 12.2
      11.3 11.0 10.5 9.4 3.7 14.5 19.6 23.3 26.6 29.4
      32.0 34.3 36.5 38.6 40.5 42.3 44.0 45.6 47.2 48.7
      50.1 51.4 52.7 53.9 55.1 56.3 57.4 58.4 59.4 60.4
      61.4 62.3 63.2 64.0 64.9 65.7 66.5 67.2 67.9 68.7
      69.4 70.0 70.7 71.3 72.0 72.6 73.2 73.8 74.4 75.0
   6  80.0 80.0 79.9 79.8 79.7 79.5 79.3 79.0 78.7 78.4
      78.0 77.6 77.2 76.7 76.2 75.6 75.0 74.4 73.7 73.0
      72.2 71.4 70.6 69.6 68.7 67.7 66.6 65.5 64.3 63.1
      61.8 60.5 59.0 57.5 56.0 54.3 52.6 50.7 48.8 46.7
      44.5 42.1 39.6 36.9 33.9 30.6 27.0 22.9 18.3 13.8
      11.9 11.1 10.5 9.5 8.2 14.7 19.5 23.3 26.5 29.4
      32.0 34.3 36.5 38.6 40.5 42.3 44.0 45.6 47.2 48.7
      50.1 51.4 52.7 53.9 55.1 56.3 57.4 58.4 59.4 60.4
      61.4 62.3 63.2 64.0 64.9 65.7 66.5 67.2 67.9 68.7
      69.4 70.0 70.7 71.3 72.0 72.6 73.2 73.8 74.4 75.0
   7  80.0 80.0 79.9 79.8 79.7 79.5 79.3 79.0 78.7 78.4
      78.0 77.6 77.2 76.7 76.2 75.6 75.0 74.4 73.7 73.0
      72.2 71.4 70.6 69.6 68.7 67.7 66.6 65.5 64.3 63.1
      61.8 60.5 59.0 57.5 56.0 54.3 52.6 50.7 48.8 46.7
      44.5 42.1 39.6 36.9 33.9 30.6 27.0 23.0 18.6 14.4
      12.3 11.2 10.5 9.7 9.8 14.9 19.5 23.3 26.5 29.4
      32.0 34.3 36.5 38.6 40.5 42.3 44.0 45.6 47.2 48.7
      50.1 51.4 52.7 53.9 55.1 56.3 57.4 58.4 59.4 60.4
      61.4 62.3 63.2 64.0 64.9 65.7 66.5 67.2 67.9 68.7
      69.4 70.0 70.7 71.3 72.0 72.6 73.2 73.8 74.4 75.0

 HEAD WILL BE SAVED ON UNIT   51 AT END OF TIME STEP   30, STRESS PERIOD   50
1
  VOLUMETRIC BUDGET FOR ENTIRE MODEL AT END OF TIME STEP   30, STRESS PERIOD  50
  ------------------------------------------------------------------------------

     CUMULATIVE VOLUMES      L**3       RATES FOR THIS TIME STEP      L**3/T
     ------------------                 ------------------------

           IN:                                      IN:
           ---                                      ---
             STORAGE     =   118306248.0000               STORAGE     =           0.3625
       CONSTANT HEAD     =           0.0000         CONSTANT HEAD     =           0.0000
               WELLS     =           0.0000                 WELLS     =           0.0000
     HEAD DEP BOUNDS     =     4145528.2500       HEAD DEP BOUNDS     =           0.1054
      STREAM LEAKAGE     =    34642556.0000        STREAM LEAKAGE     =       4.3608E-02

                TOTAL IN =   157094336.0000                  TOTAL IN =           0.5115

          OUT:                                     OUT:
          ----                                     ----
             STORAGE     =     3748865.7500               STORAGE     =           0.0000
       CONSTANT HEAD     =           0.0000         CONSTANT HEAD     =           0.0000
               WELLS     =   136959616.0000                 WELLS     =           0.5115
     HEAD DEP BOUNDS     =    16385952.0000       HEAD DEP BOUNDS     =           0.0000
      STREAM LEAKAGE     =           0.0000        STREAM LEAKAGE     =           0.0000

               TOTAL OUT =   157094432.0000                 TOTAL OUT =           0.5115

                IN - OUT =         -96.0000                  IN - OUT =           0.0000

     PERCENT DISCREPANCY =          -0.00         PERCENT DISCREPANCY =           0.00






         TIME SUMMARY AT END OF TIME STEP   30 IN STRESS PERIOD   50
                    SECONDS     MINUTES      HOURS       DAYS        YEARS
                    -----------------------------------------------------------
   TIME STEP LENGTH 2.49961E+05  4166.0      69.434      2.8931     7.92080E-03
 STRESS PERIOD TIME 2.59200E+06  43200.      720.00      30.000     8.21355E-02
         TOTAL TIME 1.29600E+08 2.16000E+06  36000.      1500.0      4.1068    
1


 Run end date and time (yyyy/mm/dd hh:mm:ss): 2023/02/27 18:43:50
 Elapsed run time: 17.588 Seconds

