1
 SUMMARY VOLUMETRIC BUDGET FOR GSFLOW 
 DATE: 10 07 1990              CUMULATIVE TIME STEP:       7
 MODFLOW STRESS PERIOD      2     CURRENT TIME STEP:       7     ITERATIONS:       7

 -----------------------------------------------------------------------------------

   CUMULATIVE VOLUMES               L**3   RATES FOR THIS TIME STEP           L**3/T
   ------------------                      ------------------------

                                     IN                                         IN
                                     --                                         --
        PRECIPITATION =                            PRECIPITATION =                  
           STREAMFLOW =                               STREAMFLOW =                  
     GW BOUNDARY FLOW =                         GW BOUNDARY FLOW =                  


                                    OUT                                        OUT
                                    ---                                        ---
   EVAPOTRANSPIRATION =         385031.74     EVAPOTRANSPIRATION =          11801.35
           STREAMFLOW =          45661.56             STREAMFLOW =           8128.73
     GW BOUNDARY FLOW =            252.78       GW BOUNDARY FLOW =             36.30

   INFLOWS - OUTFLOWS =        -430946.08     INFLOWS - OUTFLOWS =         -19966.38
             --------                                   --------

 TOTAL STORAGE CHANGE =        -429349.36         STORAGE CHANGE =         -19938.27
       --------------                             --------------
         LAND SURFACE =                             LAND SURFACE =                  
            SOIL ZONE =         -33378.23              SOIL ZONE =           -943.72
     UNSATURATED ZONE =        -502794.44       UNSATURATED ZONE =         -33592.86
       SATURATED ZONE =         106823.31         SATURATED ZONE =          14598.31

 OVERALL BUDGET ERROR =          -1596.72           BUDGET ERROR =            -28.11


  PERCENT DISCREPANCY =             -0.37    PERCENT DISCREPANCY =             -0.14



1
 SUMMARY VOLUMETRIC BUDGET FOR GSFLOW 
 DATE: 10 14 1990              CUMULATIVE TIME STEP:      14
 MODFLOW STRESS PERIOD      2     CURRENT TIME STEP:      14     ITERATIONS:       6

 -----------------------------------------------------------------------------------

   CUMULATIVE VOLUMES               L**3   RATES FOR THIS TIME STEP           L**3/T
   ------------------                      ------------------------

                                     IN                                         IN
                                     --                                         --
        PRECIPITATION =                            PRECIPITATION =                  
           STREAMFLOW =                               STREAMFLOW =                  
     GW BOUNDARY FLOW =                         GW BOUNDARY FLOW =                  


                                    OUT                                        OUT
                                    ---                                        ---
   EVAPOTRANSPIRATION =         665235.99     EVAPOTRANSPIRATION =          42298.17
           STREAMFLOW =         100376.12             STREAMFLOW =           7413.75
     GW BOUNDARY FLOW =            506.61       GW BOUNDARY FLOW =             36.24

   INFLOWS - OUTFLOWS =        -766118.72     INFLOWS - OUTFLOWS =         -49748.16
             --------                                   --------

 TOTAL STORAGE CHANGE =        -764147.63         STORAGE CHANGE =         -49710.80
       --------------                             --------------
         LAND SURFACE =                             LAND SURFACE =                  
            SOIL ZONE =         -58187.20              SOIL ZONE =          -4381.89
     UNSATURATED ZONE =        -877795.87       UNSATURATED ZONE =         -52080.86
       SATURATED ZONE =         171835.43         SATURATED ZONE =           6751.94

 OVERALL BUDGET ERROR =          -1971.09           BUDGET ERROR =            -37.36


  PERCENT DISCREPANCY =             -0.26    PERCENT DISCREPANCY =             -0.08



1
 SUMMARY VOLUMETRIC BUDGET FOR GSFLOW 
 DATE: 10 21 1990              CUMULATIVE TIME STEP:      21
 MODFLOW STRESS PERIOD      2     CURRENT TIME STEP:      21     ITERATIONS:       6

 -----------------------------------------------------------------------------------

   CUMULATIVE VOLUMES               L**3   RATES FOR THIS TIME STEP           L**3/T
   ------------------                      ------------------------

                                     IN                                         IN
                                     --                                         --
        PRECIPITATION =         188432.87          PRECIPITATION =                  
           STREAMFLOW =                               STREAMFLOW =                  
     GW BOUNDARY FLOW =                         GW BOUNDARY FLOW =                  


                                    OUT                                        OUT
                                    ---                                        ---
   EVAPOTRANSPIRATION =         815642.46     EVAPOTRANSPIRATION =          41836.90
           STREAMFLOW =         163144.33             STREAMFLOW =          10143.72
     GW BOUNDARY FLOW =            760.80       GW BOUNDARY FLOW =             36.37

   INFLOWS - OUTFLOWS =        -791114.72     INFLOWS - OUTFLOWS =         -52016.99
             --------                                   --------

 TOTAL STORAGE CHANGE =        -790284.76         STORAGE CHANGE =         -52008.98
       --------------                             --------------
         LAND SURFACE =          18885.57           LAND SURFACE =         -43558.49
            SOIL ZONE =          47353.75              SOIL ZONE =           2011.82
     UNSATURATED ZONE =       -1091620.70       UNSATURATED ZONE =         -21389.21
       SATURATED ZONE =         235096.62         SATURATED ZONE =          10926.90

 OVERALL BUDGET ERROR =           -829.96           BUDGET ERROR =             -8.01


  PERCENT DISCREPANCY =             -0.08    PERCENT DISCREPANCY =             -0.02



1
 SUMMARY VOLUMETRIC BUDGET FOR GSFLOW 
 DATE: 10 28 1990              CUMULATIVE TIME STEP:      28
 MODFLOW STRESS PERIOD      2     CURRENT TIME STEP:      28     ITERATIONS:       6

 -----------------------------------------------------------------------------------

   CUMULATIVE VOLUMES               L**3   RATES FOR THIS TIME STEP           L**3/T
   ------------------                      ------------------------

                                     IN                                         IN
                                     --                                         --
        PRECIPITATION =         188432.87          PRECIPITATION =                  
           STREAMFLOW =                               STREAMFLOW =                  
     GW BOUNDARY FLOW =                         GW BOUNDARY FLOW =                  


                                    OUT                                        OUT
                                    ---                                        ---
   EVAPOTRANSPIRATION =         944467.31     EVAPOTRANSPIRATION =          11826.40
           STREAMFLOW =         224531.40             STREAMFLOW =           8915.39
     GW BOUNDARY FLOW =           1013.98       GW BOUNDARY FLOW =             36.12

   INFLOWS - OUTFLOWS =        -981579.83     INFLOWS - OUTFLOWS =         -20777.91
             --------                                   --------

 TOTAL STORAGE CHANGE =        -980640.62         STORAGE CHANGE =         -20768.64
       --------------                             --------------
         LAND SURFACE =                             LAND SURFACE =                  
            SOIL ZONE =          18301.89              SOIL ZONE =          -3431.08
     UNSATURATED ZONE =       -1275154.47       UNSATURATED ZONE =         -23226.62
       SATURATED ZONE =         276211.95         SATURATED ZONE =           5889.06

 OVERALL BUDGET ERROR =           -939.20           BUDGET ERROR =             -9.27


  PERCENT DISCREPANCY =             -0.08    PERCENT DISCREPANCY =             -0.04



1
 SUMMARY VOLUMETRIC BUDGET FOR GSFLOW 
 DATE: 11 04 1990              CUMULATIVE TIME STEP:       4
 MODFLOW STRESS PERIOD      3     CURRENT TIME STEP:      35     ITERATIONS:       6

 -----------------------------------------------------------------------------------

   CUMULATIVE VOLUMES               L**3   RATES FOR THIS TIME STEP           L**3/T
   ------------------                      ------------------------

                                     IN                                         IN
                                     --                                         --
        PRECIPITATION =         703113.06          PRECIPITATION =                  
           STREAMFLOW =                               STREAMFLOW =                  
     GW BOUNDARY FLOW =                         GW BOUNDARY FLOW =                  


                                    OUT                                        OUT
                                    ---                                        ---
   EVAPOTRANSPIRATION =        1005165.07     EVAPOTRANSPIRATION =          26361.46
           STREAMFLOW =         295099.30             STREAMFLOW =          10641.38
     GW BOUNDARY FLOW =           1267.03       GW BOUNDARY FLOW =             36.14

   INFLOWS - OUTFLOWS =        -598418.34     INFLOWS - OUTFLOWS =         -37038.98
             --------                                   --------

 TOTAL STORAGE CHANGE =        -602470.65         STORAGE CHANGE =         -38273.45
       --------------                             --------------
         LAND SURFACE =         132159.65           LAND SURFACE =        -160480.33
            SOIL ZONE =         350094.40              SOIL ZONE =         132915.28
     UNSATURATED ZONE =       -1420666.62       UNSATURATED ZONE =         -20067.41
       SATURATED ZONE =         335941.90         SATURATED ZONE =           9359.01

 OVERALL BUDGET ERROR =           4052.31           BUDGET ERROR =           1234.47

  ***WARNING, FLUX RATES OFF > 3%

  PERCENT DISCREPANCY =              0.31    PERCENT DISCREPANCY =              3.28



1
 SUMMARY VOLUMETRIC BUDGET FOR GSFLOW 
 DATE: 11 11 1990              CUMULATIVE TIME STEP:      11
 MODFLOW STRESS PERIOD      3     CURRENT TIME STEP:      42     ITERATIONS:       6

 -----------------------------------------------------------------------------------

   CUMULATIVE VOLUMES               L**3   RATES FOR THIS TIME STEP           L**3/T
   ------------------                      ------------------------

                                     IN                                         IN
                                     --                                         --
        PRECIPITATION =         703113.06          PRECIPITATION =                  
           STREAMFLOW =                               STREAMFLOW =                  
     GW BOUNDARY FLOW =                         GW BOUNDARY FLOW =                  


                                    OUT                                        OUT
                                    ---                                        ---
   EVAPOTRANSPIRATION =        1082565.81     EVAPOTRANSPIRATION =          12155.58
           STREAMFLOW =         366116.73             STREAMFLOW =           9636.88
     GW BOUNDARY FLOW =           1519.13       GW BOUNDARY FLOW =             35.92

   INFLOWS - OUTFLOWS =        -747088.61     INFLOWS - OUTFLOWS =         -21828.38
             --------                                   --------

 TOTAL STORAGE CHANGE =        -751262.34         STORAGE CHANGE =         -21819.73
       --------------                             --------------
         LAND SURFACE =            595.09           LAND SURFACE =          -1416.54
            SOIL ZONE =         422380.90              SOIL ZONE =          -5415.77
     UNSATURATED ZONE =       -1559790.22       UNSATURATED ZONE =         -19848.29
       SATURATED ZONE =         385551.86         SATURATED ZONE =           4860.86

 OVERALL BUDGET ERROR =           4173.73           BUDGET ERROR =             -8.65


  PERCENT DISCREPANCY =              0.29    PERCENT DISCREPANCY =             -0.04



1
 SUMMARY VOLUMETRIC BUDGET FOR GSFLOW 
 DATE: 11 18 1990              CUMULATIVE TIME STEP:      18
 MODFLOW STRESS PERIOD      3     CURRENT TIME STEP:      49     ITERATIONS:       6

 -----------------------------------------------------------------------------------

   CUMULATIVE VOLUMES               L**3   RATES FOR THIS TIME STEP           L**3/T
   ------------------                      ------------------------

                                     IN                                         IN
                                     --                                         --
        PRECIPITATION =         747883.35          PRECIPITATION =                  
           STREAMFLOW =                               STREAMFLOW =                  
     GW BOUNDARY FLOW =                         GW BOUNDARY FLOW =                  


                                    OUT                                        OUT
                                    ---                                        ---
   EVAPOTRANSPIRATION =        1155113.92     EVAPOTRANSPIRATION =           5078.34
           STREAMFLOW =         437789.21             STREAMFLOW =          10665.72
     GW BOUNDARY FLOW =           1770.44       GW BOUNDARY FLOW =             35.88

   INFLOWS - OUTFLOWS =        -846790.21     INFLOWS - OUTFLOWS =         -15779.93
             --------                                   --------

 TOTAL STORAGE CHANGE =        -850959.42         STORAGE CHANGE =         -15784.72
       --------------                             --------------
         LAND SURFACE =           7868.08           LAND SURFACE =          -3691.47
            SOIL ZONE =         404476.28              SOIL ZONE =           -746.00
     UNSATURATED ZONE =       -1692948.28       UNSATURATED ZONE =         -18610.37
       SATURATED ZONE =         429644.45         SATURATED ZONE =           7263.12

 OVERALL BUDGET ERROR =           4169.21           BUDGET ERROR =              4.79


  PERCENT DISCREPANCY =              0.26    PERCENT DISCREPANCY =              0.03



1
 SUMMARY VOLUMETRIC BUDGET FOR GSFLOW 
 DATE: 11 25 1990              CUMULATIVE TIME STEP:      25
 MODFLOW STRESS PERIOD      3     CURRENT TIME STEP:      56     ITERATIONS:       6

 -----------------------------------------------------------------------------------

   CUMULATIVE VOLUMES               L**3   RATES FOR THIS TIME STEP           L**3/T
   ------------------                      ------------------------

                                     IN                                         IN
                                     --                                         --
        PRECIPITATION =        1009043.38          PRECIPITATION =         186542.88
           STREAMFLOW =                               STREAMFLOW =                  
     GW BOUNDARY FLOW =                         GW BOUNDARY FLOW =                  


                                    OUT                                        OUT
                                    ---                                        ---
   EVAPOTRANSPIRATION =        1215719.40     EVAPOTRANSPIRATION =           3754.56
           STREAMFLOW =         513770.31             STREAMFLOW =          10874.41
     GW BOUNDARY FLOW =           2021.38       GW BOUNDARY FLOW =             35.79

   INFLOWS - OUTFLOWS =        -722467.71     INFLOWS - OUTFLOWS =         171878.11
             --------                                   --------

 TOTAL STORAGE CHANGE =        -728737.49         STORAGE CHANGE =         170026.48
       --------------                             --------------
         LAND SURFACE =          86180.68           LAND SURFACE =          69567.13
            SOIL ZONE =         526578.75              SOIL ZONE =         112087.65
     UNSATURATED ZONE =       -1820550.55       UNSATURATED ZONE =         -17904.91
       SATURATED ZONE =         479053.57         SATURATED ZONE =           6276.61

 OVERALL BUDGET ERROR =           6269.78           BUDGET ERROR =           1851.62


  PERCENT DISCREPANCY =              0.36    PERCENT DISCREPANCY =              1.00



1
 SUMMARY VOLUMETRIC BUDGET FOR GSFLOW 
 DATE: 12 02 1990              CUMULATIVE TIME STEP:       2
 MODFLOW STRESS PERIOD      4     CURRENT TIME STEP:      63     ITERATIONS:       6

 -----------------------------------------------------------------------------------

   CUMULATIVE VOLUMES               L**3   RATES FOR THIS TIME STEP           L**3/T
   ------------------                      ------------------------

                                     IN                                         IN
                                     --                                         --
        PRECIPITATION =        1449284.55          PRECIPITATION =                  
           STREAMFLOW =                               STREAMFLOW =                  
     GW BOUNDARY FLOW =                         GW BOUNDARY FLOW =                  


                                    OUT                                        OUT
                                    ---                                        ---
   EVAPOTRANSPIRATION =        1222236.43     EVAPOTRANSPIRATION =            236.02
           STREAMFLOW =         590977.24             STREAMFLOW =          11070.45
     GW BOUNDARY FLOW =           2271.87       GW BOUNDARY FLOW =             35.77

   INFLOWS - OUTFLOWS =        -366200.99     INFLOWS - OUTFLOWS =         -11342.24
             --------                                   --------

 TOTAL STORAGE CHANGE =        -373585.59         STORAGE CHANGE =         -11353.74
       --------------                             --------------
         LAND SURFACE =         486845.62           LAND SURFACE =           -339.04
            SOIL ZONE =         558838.88              SOIL ZONE =            142.34
     UNSATURATED ZONE =       -1943397.69       UNSATURATED ZONE =         -17255.24
       SATURATED ZONE =         524127.52         SATURATED ZONE =           6098.20

 OVERALL BUDGET ERROR =           7384.60           BUDGET ERROR =             11.50


  PERCENT DISCREPANCY =              0.41    PERCENT DISCREPANCY =              0.10



1
 SUMMARY VOLUMETRIC BUDGET FOR GSFLOW 
 DATE: 12 09 1990              CUMULATIVE TIME STEP:       9
 MODFLOW STRESS PERIOD      4     CURRENT TIME STEP:      70     ITERATIONS:       6

 -----------------------------------------------------------------------------------

   CUMULATIVE VOLUMES               L**3   RATES FOR THIS TIME STEP           L**3/T
   ------------------                      ------------------------

                                     IN                                         IN
                                     --                                         --
        PRECIPITATION =        1449284.55          PRECIPITATION =                  
           STREAMFLOW =                               STREAMFLOW =                  
     GW BOUNDARY FLOW =                         GW BOUNDARY FLOW =                  


                                    OUT                                        OUT
                                    ---                                        ---
   EVAPOTRANSPIRATION =        1298324.92     EVAPOTRANSPIRATION =          13898.38
           STREAMFLOW =         668714.98             STREAMFLOW =          10915.97
     GW BOUNDARY FLOW =           2521.83       GW BOUNDARY FLOW =             35.65

   INFLOWS - OUTFLOWS =        -520277.19     INFLOWS - OUTFLOWS =         -24850.00
             --------                                   --------

 TOTAL STORAGE CHANGE =        -532026.46         STORAGE CHANGE =         -24943.78
       --------------                             --------------
         LAND SURFACE =          67215.41           LAND SURFACE =         -45889.70
            SOIL ZONE =         901370.49              SOIL ZONE =          33526.75
     UNSATURATED ZONE =       -2061244.34       UNSATURATED ZONE =         -16493.31
       SATURATED ZONE =         560631.88         SATURATED ZONE =           3912.47

 OVERALL BUDGET ERROR =          11749.27           BUDGET ERROR =             93.78


  PERCENT DISCREPANCY =              0.59    PERCENT DISCREPANCY =              0.38



1
 SUMMARY VOLUMETRIC BUDGET FOR GSFLOW 
 DATE: 12 16 1990              CUMULATIVE TIME STEP:      16
 MODFLOW STRESS PERIOD      4     CURRENT TIME STEP:      77     ITERATIONS:       5

 -----------------------------------------------------------------------------------

   CUMULATIVE VOLUMES               L**3   RATES FOR THIS TIME STEP           L**3/T
   ------------------                      ------------------------

                                     IN                                         IN
                                     --                                         --
        PRECIPITATION =        1804962.84          PRECIPITATION =                  
           STREAMFLOW =                               STREAMFLOW =                  
     GW BOUNDARY FLOW =                         GW BOUNDARY FLOW =                  


                                    OUT                                        OUT
                                    ---                                        ---
   EVAPOTRANSPIRATION =        1326661.98     EVAPOTRANSPIRATION =                  
           STREAMFLOW =         748411.25             STREAMFLOW =          11516.67
     GW BOUNDARY FLOW =           2771.24       GW BOUNDARY FLOW =             35.61

   INFLOWS - OUTFLOWS =        -272881.63     INFLOWS - OUTFLOWS =         -11552.28
             --------                                   --------

 TOTAL STORAGE CHANGE =        -286892.13         STORAGE CHANGE =         -11567.42
       --------------                             --------------
         LAND SURFACE =         252566.26           LAND SURFACE =                  
            SOIL ZONE =        1043781.13              SOIL ZONE =            -32.96
     UNSATURATED ZONE =       -2174584.81       UNSATURATED ZONE =         -15930.34
       SATURATED ZONE =         591345.13         SATURATED ZONE =           4395.87

 OVERALL BUDGET ERROR =          14010.50           BUDGET ERROR =             15.14


  PERCENT DISCREPANCY =              0.67    PERCENT DISCREPANCY =              0.13



1
 SUMMARY VOLUMETRIC BUDGET FOR GSFLOW 
 DATE: 12 23 1990              CUMULATIVE TIME STEP:      23
 MODFLOW STRESS PERIOD      4     CURRENT TIME STEP:      84     ITERATIONS:       6

 -----------------------------------------------------------------------------------

   CUMULATIVE VOLUMES               L**3   RATES FOR THIS TIME STEP           L**3/T
   ------------------                      ------------------------

                                     IN                                         IN
                                     --                                         --
        PRECIPITATION =        2276236.55          PRECIPITATION =                  
           STREAMFLOW =                               STREAMFLOW =                  
     GW BOUNDARY FLOW =              0.08       GW BOUNDARY FLOW =              0.04


                                    OUT                                        OUT
                                    ---                                        ---
   EVAPOTRANSPIRATION =        1327723.94     EVAPOTRANSPIRATION =                  
           STREAMFLOW =         829206.66             STREAMFLOW =          11564.91
     GW BOUNDARY FLOW =           3020.27       GW BOUNDARY FLOW =             35.57

   INFLOWS - OUTFLOWS =         116285.76     INFLOWS - OUTFLOWS =         -11600.44
             --------                                   --------

 TOTAL STORAGE CHANGE =         102185.62         STORAGE CHANGE =         -11612.27
       --------------                             --------------
         LAND SURFACE =         722784.34           LAND SURFACE =                  
            SOIL ZONE =        1043898.52              SOIL ZONE =             46.61
     UNSATURATED ZONE =       -2283782.45       UNSATURATED ZONE =         -15355.39
       SATURATED ZONE =         619285.02         SATURATED ZONE =           3696.50

 OVERALL BUDGET ERROR =          14100.15           BUDGET ERROR =             11.83


  PERCENT DISCREPANCY =              0.62    PERCENT DISCREPANCY =              0.10



1
 SUMMARY VOLUMETRIC BUDGET FOR GSFLOW 
 DATE: 12 30 1990              CUMULATIVE TIME STEP:      30
 MODFLOW STRESS PERIOD      4     CURRENT TIME STEP:      91     ITERATIONS:       5

 -----------------------------------------------------------------------------------

   CUMULATIVE VOLUMES               L**3   RATES FOR THIS TIME STEP           L**3/T
   ------------------                      ------------------------

                                     IN                                         IN
                                     --                                         --
        PRECIPITATION =        2276236.55          PRECIPITATION =                  
           STREAMFLOW =                               STREAMFLOW =                  
     GW BOUNDARY FLOW =              0.77       GW BOUNDARY FLOW =              0.14


                                    OUT                                        OUT
                                    ---                                        ---
   EVAPOTRANSPIRATION =        1328294.09     EVAPOTRANSPIRATION =                  
           STREAMFLOW =         910411.94             STREAMFLOW =          11631.92
     GW BOUNDARY FLOW =           3269.38       GW BOUNDARY FLOW =             35.60

   INFLOWS - OUTFLOWS =          34261.90     INFLOWS - OUTFLOWS =         -11667.38
             --------                                   --------

 TOTAL STORAGE CHANGE =          20090.21         STORAGE CHANGE =         -11676.95
       --------------                             --------------
         LAND SURFACE =         722216.94           LAND SURFACE =                  
            SOIL ZONE =        1044426.83              SOIL ZONE =             94.69
     UNSATURATED ZONE =       -2389068.56       UNSATURATED ZONE =         -14806.28
       SATURATED ZONE =         642514.77         SATURATED ZONE =           3034.64

 OVERALL BUDGET ERROR =          14171.69           BUDGET ERROR =              9.57


  PERCENT DISCREPANCY =              0.62    PERCENT DISCREPANCY =              0.08



1
 SUMMARY VOLUMETRIC BUDGET FOR GSFLOW 
 DATE: 01 06 1991              CUMULATIVE TIME STEP:       6
 MODFLOW STRESS PERIOD      5     CURRENT TIME STEP:      98     ITERATIONS:       5

 -----------------------------------------------------------------------------------

   CUMULATIVE VOLUMES               L**3   RATES FOR THIS TIME STEP           L**3/T
   ------------------                      ------------------------

                                     IN                                         IN
                                     --                                         --
        PRECIPITATION =        2276236.55          PRECIPITATION =                  
           STREAMFLOW =                               STREAMFLOW =                  
     GW BOUNDARY FLOW =              2.09       GW BOUNDARY FLOW =              0.22


                                    OUT                                        OUT
                                    ---                                        ---
   EVAPOTRANSPIRATION =        1355377.79     EVAPOTRANSPIRATION =           3191.05
           STREAMFLOW =         992289.31             STREAMFLOW =          11738.69
     GW BOUNDARY FLOW =           3519.27       GW BOUNDARY FLOW =             35.75

   INFLOWS - OUTFLOWS =         -74947.73     INFLOWS - OUTFLOWS =         -14965.27
             --------                                   --------

 TOTAL STORAGE CHANGE =         -91669.32         STORAGE CHANGE =         -15097.54
       --------------                             --------------
         LAND SURFACE =         592099.77           LAND SURFACE =          -8106.31
            SOIL ZONE =        1145680.84              SOIL ZONE =           4881.98
     UNSATURATED ZONE =       -2490421.59       UNSATURATED ZONE =         -14246.18
       SATURATED ZONE =         660971.40         SATURATED ZONE =           2372.96

 OVERALL BUDGET ERROR =          16721.59           BUDGET ERROR =            132.27


  PERCENT DISCREPANCY =              0.71    PERCENT DISCREPANCY =              0.88



1
 SUMMARY VOLUMETRIC BUDGET FOR GSFLOW 
 DATE: 01 13 1991              CUMULATIVE TIME STEP:      13
 MODFLOW STRESS PERIOD      5     CURRENT TIME STEP:     105     ITERATIONS:       6

 -----------------------------------------------------------------------------------

   CUMULATIVE VOLUMES               L**3   RATES FOR THIS TIME STEP           L**3/T
   ------------------                      ------------------------

                                     IN                                         IN
                                     --                                         --
        PRECIPITATION =        2596386.94          PRECIPITATION =          10327.43
           STREAMFLOW =                               STREAMFLOW =                  
     GW BOUNDARY FLOW =              4.01       GW BOUNDARY FLOW =              0.31


                                    OUT                                        OUT
                                    ---                                        ---
   EVAPOTRANSPIRATION =        1422325.69     EVAPOTRANSPIRATION =          18640.94
           STREAMFLOW =        1074609.30             STREAMFLOW =          11738.63
     GW BOUNDARY FLOW =           3769.49       GW BOUNDARY FLOW =             35.73

   INFLOWS - OUTFLOWS =          95686.47     INFLOWS - OUTFLOWS =         -20087.56
             --------                                   --------

 TOTAL STORAGE CHANGE =          74017.78         STORAGE CHANGE =         -21311.71
       --------------                             --------------
         LAND SURFACE =         529885.07           LAND SURFACE =        -135264.71
            SOIL ZONE =        1458046.83              SOIL ZONE =         126525.53
     UNSATURATED ZONE =       -2587707.99       UNSATURATED ZONE =         -13692.75
       SATURATED ZONE =         673793.54         SATURATED ZONE =           1120.20

 OVERALL BUDGET ERROR =          21668.69           BUDGET ERROR =           1224.15

  ***WARNING, FLUX RATES OFF > 3%

  PERCENT DISCREPANCY =              0.84    PERCENT DISCREPANCY =              3.95



1
 SUMMARY VOLUMETRIC BUDGET FOR GSFLOW 
 DATE: 01 20 1991              CUMULATIVE TIME STEP:      20
 MODFLOW STRESS PERIOD      5     CURRENT TIME STEP:     112     ITERATIONS:       5

 -----------------------------------------------------------------------------------

   CUMULATIVE VOLUMES               L**3   RATES FOR THIS TIME STEP           L**3/T
   ------------------                      ------------------------

                                     IN                                         IN
                                     --                                         --
        PRECIPITATION =        2596386.94          PRECIPITATION =                  
           STREAMFLOW =                               STREAMFLOW =                  
     GW BOUNDARY FLOW =              6.54       GW BOUNDARY FLOW =              0.40


                                    OUT                                        OUT
                                    ---                                        ---
   EVAPOTRANSPIRATION =        1499700.20     EVAPOTRANSPIRATION =           2461.50
           STREAMFLOW =        1157775.44             STREAMFLOW =          11899.36
     GW BOUNDARY FLOW =           4019.71       GW BOUNDARY FLOW =             35.74

   INFLOWS - OUTFLOWS =         -65101.87     INFLOWS - OUTFLOWS =         -14396.20
             --------                                   --------

 TOTAL STORAGE CHANGE =         -87538.44         STORAGE CHANGE =         -14395.27
       --------------                             --------------
         LAND SURFACE =         356897.60           LAND SURFACE =           -433.81
            SOIL ZONE =        1553609.36              SOIL ZONE =          -1970.62
     UNSATURATED ZONE =       -2681103.52       UNSATURATED ZONE =         -13122.49
       SATURATED ZONE =         683057.74         SATURATED ZONE =           1131.64

 OVERALL BUDGET ERROR =          22436.57           BUDGET ERROR =             -0.94


  PERCENT DISCREPANCY =              0.84    PERCENT DISCREPANCY =             -0.01



1
 SUMMARY VOLUMETRIC BUDGET FOR GSFLOW 
 DATE: 01 27 1991              CUMULATIVE TIME STEP:      27
 MODFLOW STRESS PERIOD      5     CURRENT TIME STEP:     119     ITERATIONS:       5

 -----------------------------------------------------------------------------------

   CUMULATIVE VOLUMES               L**3   RATES FOR THIS TIME STEP           L**3/T
   ------------------                      ------------------------

                                     IN                                         IN
                                     --                                         --
        PRECIPITATION =        2596386.94          PRECIPITATION =                  
           STREAMFLOW =                               STREAMFLOW =                  
     GW BOUNDARY FLOW =              9.65       GW BOUNDARY FLOW =              0.48


                                    OUT                                        OUT
                                    ---                                        ---
   EVAPOTRANSPIRATION =        1525602.04     EVAPOTRANSPIRATION =           1702.93
           STREAMFLOW =        1241015.39             STREAMFLOW =          11916.87
     GW BOUNDARY FLOW =           4269.88       GW BOUNDARY FLOW =             35.74

   INFLOWS - OUTFLOWS =        -174490.71     INFLOWS - OUTFLOWS =         -13655.06
             --------                                   --------

 TOTAL STORAGE CHANGE =        -197142.95         STORAGE CHANGE =         -13666.81
       --------------                             --------------
         LAND SURFACE =         323033.09           LAND SURFACE =           -547.84
            SOIL ZONE =        1562285.76              SOIL ZONE =          -1065.63
     UNSATURATED ZONE =       -2771022.16       UNSATURATED ZONE =         -12627.92
       SATURATED ZONE =         688559.92         SATURATED ZONE =            574.57

 OVERALL BUDGET ERROR =          22652.23           BUDGET ERROR =             11.75


  PERCENT DISCREPANCY =              0.81    PERCENT DISCREPANCY =              0.09



1
 SUMMARY VOLUMETRIC BUDGET FOR GSFLOW 
 DATE: 02 03 1991              CUMULATIVE TIME STEP:       3
 MODFLOW STRESS PERIOD      6     CURRENT TIME STEP:     126     ITERATIONS:       6

 -----------------------------------------------------------------------------------

   CUMULATIVE VOLUMES               L**3   RATES FOR THIS TIME STEP           L**3/T
   ------------------                      ------------------------

                                     IN                                         IN
                                     --                                         --
        PRECIPITATION =        3228422.31          PRECIPITATION =          30459.53
           STREAMFLOW =                               STREAMFLOW =                  
     GW BOUNDARY FLOW =             13.31       GW BOUNDARY FLOW =              0.55


                                    OUT                                        OUT
                                    ---                                        ---
   EVAPOTRANSPIRATION =        1632614.51     EVAPOTRANSPIRATION =          21403.89
           STREAMFLOW =        1325825.68             STREAMFLOW =          12243.09
     GW BOUNDARY FLOW =           4519.98       GW BOUNDARY FLOW =             35.74

   INFLOWS - OUTFLOWS =         265475.44     INFLOWS - OUTFLOWS =          -3222.63
             --------                                   --------

 TOTAL STORAGE CHANGE =         235853.92         STORAGE CHANGE =          -3502.94
       --------------                             --------------
         LAND SURFACE =         157683.43           LAND SURFACE =         -26376.35
            SOIL ZONE =        2246084.29              SOIL ZONE =          35065.49
     UNSATURATED ZONE =       -2857622.57       UNSATURATED ZONE =         -12195.11
       SATURATED ZONE =         689708.26         SATURATED ZONE =              3.02

 OVERALL BUDGET ERROR =          29621.52           BUDGET ERROR =            280.31


  PERCENT DISCREPANCY =              0.92    PERCENT DISCREPANCY =              0.83



1
 SUMMARY VOLUMETRIC BUDGET FOR GSFLOW 
 DATE: 02 10 1991              CUMULATIVE TIME STEP:      10
 MODFLOW STRESS PERIOD      6     CURRENT TIME STEP:     133     ITERATIONS:       5

 -----------------------------------------------------------------------------------

   CUMULATIVE VOLUMES               L**3   RATES FOR THIS TIME STEP           L**3/T
   ------------------                      ------------------------

                                     IN                                         IN
                                     --                                         --
        PRECIPITATION =        3510173.01          PRECIPITATION =                  
           STREAMFLOW =                               STREAMFLOW =                  
     GW BOUNDARY FLOW =             17.48       GW BOUNDARY FLOW =              0.63


                                    OUT                                        OUT
                                    ---                                        ---
   EVAPOTRANSPIRATION =        1800397.07     EVAPOTRANSPIRATION =          25669.06
           STREAMFLOW =        1412006.49             STREAMFLOW =          12168.52
     GW BOUNDARY FLOW =           4770.07       GW BOUNDARY FLOW =             35.72

   INFLOWS - OUTFLOWS =         293016.87     INFLOWS - OUTFLOWS =         -37872.68
             --------                                   --------

 TOTAL STORAGE CHANGE =         260811.18         STORAGE CHANGE =         -37797.62
       --------------                             --------------
         LAND SURFACE =          75877.11           LAND SURFACE =          -8469.89
            SOIL ZONE =        2437813.34              SOIL ZONE =         -17129.44
     UNSATURATED ZONE =       -2940792.03       UNSATURATED ZONE =         -11688.97
       SATURATED ZONE =         687912.17         SATURATED ZONE =           -509.33

 OVERALL BUDGET ERROR =          32205.68           BUDGET ERROR =            -75.06


  PERCENT DISCREPANCY =              0.92    PERCENT DISCREPANCY =             -0.20



1
 SUMMARY VOLUMETRIC BUDGET FOR GSFLOW 
 DATE: 02 17 1991              CUMULATIVE TIME STEP:      17
 MODFLOW STRESS PERIOD      6     CURRENT TIME STEP:     140     ITERATIONS:       5

 -----------------------------------------------------------------------------------

   CUMULATIVE VOLUMES               L**3   RATES FOR THIS TIME STEP           L**3/T
   ------------------                      ------------------------

                                     IN                                         IN
                                     --                                         --
        PRECIPITATION =        3510173.01          PRECIPITATION =                  
           STREAMFLOW =                               STREAMFLOW =                  
     GW BOUNDARY FLOW =             22.16       GW BOUNDARY FLOW =              0.70


                                    OUT                                        OUT
                                    ---                                        ---
   EVAPOTRANSPIRATION =        2043455.97     EVAPOTRANSPIRATION =          23705.62
           STREAMFLOW =        1496734.19             STREAMFLOW =          12101.49
     GW BOUNDARY FLOW =           5020.00       GW BOUNDARY FLOW =             35.68

   INFLOWS - OUTFLOWS =         -35015.00     INFLOWS - OUTFLOWS =         -35842.08
             --------                                   --------

 TOTAL STORAGE CHANGE =         -66454.33         STORAGE CHANGE =         -35766.25
       --------------                             --------------
         LAND SURFACE =          17890.99           LAND SURFACE =          -1143.67
            SOIL ZONE =        2253951.73              SOIL ZONE =         -22482.14
     UNSATURATED ZONE =       -3020421.13       UNSATURATED ZONE =         -11093.39
       SATURATED ZONE =         682123.40         SATURATED ZONE =          -1047.07

 OVERALL BUDGET ERROR =          31439.33           BUDGET ERROR =            -75.84


  PERCENT DISCREPANCY =              0.88    PERCENT DISCREPANCY =             -0.21



1
 SUMMARY VOLUMETRIC BUDGET FOR GSFLOW 
 DATE: 02 24 1991              CUMULATIVE TIME STEP:      24
 MODFLOW STRESS PERIOD      6     CURRENT TIME STEP:     147     ITERATIONS:       5

 -----------------------------------------------------------------------------------

   CUMULATIVE VOLUMES               L**3   RATES FOR THIS TIME STEP           L**3/T
   ------------------                      ------------------------

                                     IN                                         IN
                                     --                                         --
        PRECIPITATION =        3510173.01          PRECIPITATION =                  
           STREAMFLOW =                               STREAMFLOW =                  
     GW BOUNDARY FLOW =             27.30       GW BOUNDARY FLOW =              0.76


                                    OUT                                        OUT
                                    ---                                        ---
   EVAPOTRANSPIRATION =        2256887.49     EVAPOTRANSPIRATION =          21630.85
           STREAMFLOW =        1580770.17             STREAMFLOW =          11968.73
     GW BOUNDARY FLOW =           5268.91       GW BOUNDARY FLOW =             35.48

   INFLOWS - OUTFLOWS =        -332726.25     INFLOWS - OUTFLOWS =         -33634.30
             --------                                   --------

 TOTAL STORAGE CHANGE =        -363468.25         STORAGE CHANGE =         -33561.69
       --------------                             --------------
         LAND SURFACE =           7435.72           LAND SURFACE =           -217.69
            SOIL ZONE =        2052978.28              SOIL ZONE =         -21048.54
     UNSATURATED ZONE =       -3096405.90       UNSATURATED ZONE =         -10677.83
       SATURATED ZONE =         672522.88         SATURATED ZONE =          -1617.64

 OVERALL BUDGET ERROR =          30741.99           BUDGET ERROR =            -72.62


  PERCENT DISCREPANCY =              0.80    PERCENT DISCREPANCY =             -0.22



1
 SUMMARY VOLUMETRIC BUDGET FOR GSFLOW 
 DATE: 03 03 1991              CUMULATIVE TIME STEP:       3
 MODFLOW STRESS PERIOD      7     CURRENT TIME STEP:     154     ITERATIONS:       5

 -----------------------------------------------------------------------------------

   CUMULATIVE VOLUMES               L**3   RATES FOR THIS TIME STEP           L**3/T
   ------------------                      ------------------------

                                     IN                                         IN
                                     --                                         --
        PRECIPITATION =        6220189.63          PRECIPITATION =        1243187.24
           STREAMFLOW =                               STREAMFLOW =                  
     GW BOUNDARY FLOW =             32.90       GW BOUNDARY FLOW =              0.83


                                    OUT                                        OUT
                                    ---                                        ---
   EVAPOTRANSPIRATION =        2408954.79     EVAPOTRANSPIRATION =           8455.65
           STREAMFLOW =        1664314.08             STREAMFLOW =          12329.37
     GW BOUNDARY FLOW =           5516.61       GW BOUNDARY FLOW =             35.34

   INFLOWS - OUTFLOWS =        2141437.06     INFLOWS - OUTFLOWS =        1222367.71
             --------                                   --------

 TOTAL STORAGE CHANGE =        2103667.92         STORAGE CHANGE =        1214889.24
       --------------                             --------------
         LAND SURFACE =        2352761.88           LAND SURFACE =         894135.84
            SOIL ZONE =        2262855.05              SOIL ZONE =         333412.26
     UNSATURATED ZONE =       -3169306.67       UNSATURATED ZONE =         -10273.06
       SATURATED ZONE =         657356.80         SATURATED ZONE =          -2385.82

 OVERALL BUDGET ERROR =          37769.14           BUDGET ERROR =           7478.47


  PERCENT DISCREPANCY =              0.61    PERCENT DISCREPANCY =              0.60



1
 SUMMARY VOLUMETRIC BUDGET FOR GSFLOW 
 DATE: 03 10 1991              CUMULATIVE TIME STEP:      10
 MODFLOW STRESS PERIOD      7     CURRENT TIME STEP:     161     ITERATIONS:       5

 -----------------------------------------------------------------------------------

   CUMULATIVE VOLUMES               L**3   RATES FOR THIS TIME STEP           L**3/T
   ------------------                      ------------------------

                                     IN                                         IN
                                     --                                         --
        PRECIPITATION =        8746030.42          PRECIPITATION =          32888.55
           STREAMFLOW =                               STREAMFLOW =                  
     GW BOUNDARY FLOW =             38.94       GW BOUNDARY FLOW =              0.89


                                    OUT                                        OUT
                                    ---                                        ---
   EVAPOTRANSPIRATION =        2482250.31     EVAPOTRANSPIRATION =           8863.45
           STREAMFLOW =        1847425.92             STREAMFLOW =          21777.41
     GW BOUNDARY FLOW =           5765.51       GW BOUNDARY FLOW =             35.44

   INFLOWS - OUTFLOWS =        4410627.61     INFLOWS - OUTFLOWS =           2213.13
             --------                                   --------

 TOTAL STORAGE CHANGE =        4340295.14         STORAGE CHANGE =           1118.77
       --------------                             --------------
         LAND SURFACE =        2523463.28           LAND SURFACE =         -14137.08
            SOIL ZONE =        4355870.68              SOIL ZONE =          18679.09
     UNSATURATED ZONE =       -3191009.12       UNSATURATED ZONE =          -2085.38
       SATURATED ZONE =         651969.24         SATURATED ZONE =          -1337.89

 OVERALL BUDGET ERROR =          70332.48           BUDGET ERROR =           1094.36

  ***WARNING, FLUX RATES OFF > 3%

  PERCENT DISCREPANCY =              0.81    PERCENT DISCREPANCY =              3.38



1
 SUMMARY VOLUMETRIC BUDGET FOR GSFLOW 
 DATE: 03 17 1991              CUMULATIVE TIME STEP:      17
 MODFLOW STRESS PERIOD      7     CURRENT TIME STEP:     168     ITERATIONS:       5

 -----------------------------------------------------------------------------------

   CUMULATIVE VOLUMES               L**3   RATES FOR THIS TIME STEP           L**3/T
   ------------------                      ------------------------

                                     IN                                         IN
                                     --                                         --
        PRECIPITATION =        9897129.71          PRECIPITATION =         157865.04
           STREAMFLOW =                               STREAMFLOW =                  
     GW BOUNDARY FLOW =             45.38       GW BOUNDARY FLOW =              0.95


                                    OUT                                        OUT
                                    ---                                        ---
   EVAPOTRANSPIRATION =        2510088.75     EVAPOTRANSPIRATION =           8079.62
           STREAMFLOW =        1987955.17             STREAMFLOW =          19447.51
     GW BOUNDARY FLOW =           6012.75       GW BOUNDARY FLOW =             35.24

   INFLOWS - OUTFLOWS =        5393118.43     INFLOWS - OUTFLOWS =         130303.61
             --------                                   --------

 TOTAL STORAGE CHANGE =        5321339.05         STORAGE CHANGE =         130126.01
       --------------                             --------------
         LAND SURFACE =        3672302.31           LAND SURFACE =         157496.61
            SOIL ZONE =        4218708.85              SOIL ZONE =         -22427.40
     UNSATURATED ZONE =       -3209108.16       UNSATURATED ZONE =          -2874.49
       SATURATED ZONE =         639434.77         SATURATED ZONE =          -2068.74

 OVERALL BUDGET ERROR =          71779.37           BUDGET ERROR =            177.60


  PERCENT DISCREPANCY =              0.73    PERCENT DISCREPANCY =              0.11



1
 SUMMARY VOLUMETRIC BUDGET FOR GSFLOW 
 DATE: 03 24 1991              CUMULATIVE TIME STEP:      24
 MODFLOW STRESS PERIOD      7     CURRENT TIME STEP:     175     ITERATIONS:       5

 -----------------------------------------------------------------------------------

   CUMULATIVE VOLUMES               L**3   RATES FOR THIS TIME STEP           L**3/T
   ------------------                      ------------------------

                                     IN                                         IN
                                     --                                         --
        PRECIPITATION =        1.1673D+07          PRECIPITATION =        1230031.83
           STREAMFLOW =                               STREAMFLOW =                  
     GW BOUNDARY FLOW =             52.23       GW BOUNDARY FLOW =              1.00


                                    OUT                                        OUT
                                    ---                                        ---
   EVAPOTRANSPIRATION =        2548914.13     EVAPOTRANSPIRATION =           4663.35
           STREAMFLOW =        2120138.28             STREAMFLOW =          18590.97
     GW BOUNDARY FLOW =           6258.79       GW BOUNDARY FLOW =             35.08

   INFLOWS - OUTFLOWS =        6997852.54     INFLOWS - OUTFLOWS =        1206743.44
             --------                                   --------

 TOTAL STORAGE CHANGE =        6924165.57         STORAGE CHANGE =        1206575.25
       --------------                             --------------
         LAND SURFACE =        5426161.22           LAND SURFACE =        1230031.83
            SOIL ZONE =        4107559.88              SOIL ZONE =         -17327.19
     UNSATURATED ZONE =       -3232767.39       UNSATURATED ZONE =          -3632.40
       SATURATED ZONE =         623210.37         SATURATED ZONE =          -2497.02

 OVERALL BUDGET ERROR =          73686.97           BUDGET ERROR =            168.19


  PERCENT DISCREPANCY =              0.63    PERCENT DISCREPANCY =              0.01



1
 SUMMARY VOLUMETRIC BUDGET FOR GSFLOW 
 DATE: 03 31 1991              CUMULATIVE TIME STEP:      31
 MODFLOW STRESS PERIOD      7     CURRENT TIME STEP:     182     ITERATIONS:       6

 -----------------------------------------------------------------------------------

   CUMULATIVE VOLUMES               L**3   RATES FOR THIS TIME STEP           L**3/T
   ------------------                      ------------------------

                                     IN                                         IN
                                     --                                         --
        PRECIPITATION =        1.2495D+07          PRECIPITATION =                  
           STREAMFLOW =                               STREAMFLOW =                  
     GW BOUNDARY FLOW =             59.47       GW BOUNDARY FLOW =              1.06


                                    OUT                                        OUT
                                    ---                                        ---
   EVAPOTRANSPIRATION =        2670676.09     EVAPOTRANSPIRATION =          48053.54
           STREAMFLOW =        2252291.20             STREAMFLOW =          21915.48
     GW BOUNDARY FLOW =           6503.84       GW BOUNDARY FLOW =             35.01

   INFLOWS - OUTFLOWS =        7565913.62     INFLOWS - OUTFLOWS =         -70002.97
             --------                                   --------

 TOTAL STORAGE CHANGE =        7486606.67         STORAGE CHANGE =         -72966.72
       --------------                             --------------
         LAND SURFACE =        5977198.26           LAND SURFACE =        -148137.48
            SOIL ZONE =        4162350.99              SOIL ZONE =          80468.57
     UNSATURATED ZONE =       -3257886.07       UNSATURATED ZONE =          -2598.29
       SATURATED ZONE =         604941.80         SATURATED ZONE =          -2699.55

 OVERALL BUDGET ERROR =          79306.95           BUDGET ERROR =           2963.75

  ***WARNING, FLUX RATES OFF > 3%

  PERCENT DISCREPANCY =              0.64    PERCENT DISCREPANCY =              4.15



1
 SUMMARY VOLUMETRIC BUDGET FOR GSFLOW 
 DATE: 04 07 1991              CUMULATIVE TIME STEP:       7
 MODFLOW STRESS PERIOD      8     CURRENT TIME STEP:     189     ITERATIONS:       7

 -----------------------------------------------------------------------------------

   CUMULATIVE VOLUMES               L**3   RATES FOR THIS TIME STEP           L**3/T
   ------------------                      ------------------------

                                     IN                                         IN
                                     --                                         --
        PRECIPITATION =        1.3018D+07          PRECIPITATION =                  
           STREAMFLOW =                               STREAMFLOW =                  
     GW BOUNDARY FLOW =             67.08       GW BOUNDARY FLOW =              1.11


                                    OUT                                        OUT
                                    ---                                        ---
   EVAPOTRANSPIRATION =        2978768.27     EVAPOTRANSPIRATION =          15960.30
           STREAMFLOW =        2563598.22             STREAMFLOW =          62032.18
     GW BOUNDARY FLOW =           6751.14       GW BOUNDARY FLOW =             35.58

   INFLOWS - OUTFLOWS =        7468686.19     INFLOWS - OUTFLOWS =         -78026.95
             --------                                   --------

 TOTAL STORAGE CHANGE =        7352143.11         STORAGE CHANGE =         -80746.41
       --------------                             --------------
         LAND SURFACE =        4335933.24           LAND SURFACE =         -73164.41
            SOIL ZONE =        5662796.65              SOIL ZONE =         -14534.29
     UNSATURATED ZONE =       -3235950.95       UNSATURATED ZONE =           9018.54
       SATURATED ZONE =         589362.21         SATURATED ZONE =          -2066.29

 OVERALL BUDGET ERROR =         116543.08           BUDGET ERROR =           2719.45

  ***WARNING, FLUX RATES OFF > 3%

  PERCENT DISCREPANCY =              0.90    PERCENT DISCREPANCY =              3.43



1
 SUMMARY VOLUMETRIC BUDGET FOR GSFLOW 
 DATE: 04 14 1991              CUMULATIVE TIME STEP:      14
 MODFLOW STRESS PERIOD      8     CURRENT TIME STEP:     196     ITERATIONS:       7

 -----------------------------------------------------------------------------------

   CUMULATIVE VOLUMES               L**3   RATES FOR THIS TIME STEP           L**3/T
   ------------------                      ------------------------

                                     IN                                         IN
                                     --                                         --
        PRECIPITATION =        1.3018D+07          PRECIPITATION =                  
           STREAMFLOW =                               STREAMFLOW =                  
     GW BOUNDARY FLOW =             75.01       GW BOUNDARY FLOW =              1.15


                                    OUT                                        OUT
                                    ---                                        ---
   EVAPOTRANSPIRATION =        3162879.11     EVAPOTRANSPIRATION =          42037.36
           STREAMFLOW =        3041772.63             STREAMFLOW =          72760.90
     GW BOUNDARY FLOW =           7000.25       GW BOUNDARY FLOW =             35.60

   INFLOWS - OUTFLOWS =        6806159.76     INFLOWS - OUTFLOWS =        -114832.70
             --------                                   --------

 TOTAL STORAGE CHANGE =        6666682.46         STORAGE CHANGE =        -119627.58
       --------------                             --------------
         LAND SURFACE =        3672284.11           LAND SURFACE =        -192335.10
            SOIL ZONE =        5595154.10              SOIL ZONE =          66546.07
     UNSATURATED ZONE =       -3176499.54       UNSATURATED ZONE =           7947.78
       SATURATED ZONE =         575741.50         SATURATED ZONE =          -1786.38

 OVERALL BUDGET ERROR =         139477.30           BUDGET ERROR =           4794.88

  ***WARNING, FLUX RATES OFF > 3%

  PERCENT DISCREPANCY =              1.08    PERCENT DISCREPANCY =              4.09



1
 SUMMARY VOLUMETRIC BUDGET FOR GSFLOW 
 DATE: 04 21 1991              CUMULATIVE TIME STEP:      21
 MODFLOW STRESS PERIOD      8     CURRENT TIME STEP:     203     ITERATIONS:       9

 -----------------------------------------------------------------------------------

   CUMULATIVE VOLUMES               L**3   RATES FOR THIS TIME STEP           L**3/T
   ------------------                      ------------------------

                                     IN                                         IN
                                     --                                         --
        PRECIPITATION =        1.3034D+07          PRECIPITATION =                  
           STREAMFLOW =                               STREAMFLOW =                  
     GW BOUNDARY FLOW =             83.25       GW BOUNDARY FLOW =              1.19


                                    OUT                                        OUT
                                    ---                                        ---
   EVAPOTRANSPIRATION =        3416513.75     EVAPOTRANSPIRATION =          46895.54
           STREAMFLOW =        3591655.84             STREAMFLOW =          89807.75
     GW BOUNDARY FLOW =           7249.56       GW BOUNDARY FLOW =             35.72

   INFLOWS - OUTFLOWS =        6018726.18     INFLOWS - OUTFLOWS =        -136737.82
             --------                                   --------

 TOTAL STORAGE CHANGE =        5848620.26         STORAGE CHANGE =        -141826.68
       --------------                             --------------
         LAND SURFACE =        2500870.94           LAND SURFACE =        -216968.59
            SOIL ZONE =        5899695.84              SOIL ZONE =          66399.32
     UNSATURATED ZONE =       -3115569.94       UNSATURATED ZONE =          10222.65
       SATURATED ZONE =         563620.78         SATURATED ZONE =          -1480.11

 OVERALL BUDGET ERROR =         170105.92           BUDGET ERROR =           5088.86

  ***WARNING, FLUX RATES OFF > 3%

  PERCENT DISCREPANCY =              1.31    PERCENT DISCREPANCY =              3.65



1
 SUMMARY VOLUMETRIC BUDGET FOR GSFLOW 
 DATE: 04 28 1991              CUMULATIVE TIME STEP:      28
 MODFLOW STRESS PERIOD      8     CURRENT TIME STEP:     210     ITERATIONS:       6

 -----------------------------------------------------------------------------------

   CUMULATIVE VOLUMES               L**3   RATES FOR THIS TIME STEP           L**3/T
   ------------------                      ------------------------

                                     IN                                         IN
                                     --                                         --
        PRECIPITATION =        1.3303D+07          PRECIPITATION =                  
           STREAMFLOW =                               STREAMFLOW =                  
     GW BOUNDARY FLOW =             91.75       GW BOUNDARY FLOW =              1.23


                                    OUT                                        OUT
                                    ---                                        ---
   EVAPOTRANSPIRATION =        3684934.87     EVAPOTRANSPIRATION =          58231.63
           STREAMFLOW =        4235290.30             STREAMFLOW =          91236.38
     GW BOUNDARY FLOW =           7499.40       GW BOUNDARY FLOW =             35.64

   INFLOWS - OUTFLOWS =        5375797.68     INFLOWS - OUTFLOWS =        -149502.41
             --------                                   --------

 TOTAL STORAGE CHANGE =        5173869.38         STORAGE CHANGE =        -153510.62
       --------------                             --------------
         LAND SURFACE =        1748447.64           LAND SURFACE =        -137153.52
            SOIL ZONE =        5912461.06              SOIL ZONE =         -25144.57
     UNSATURATED ZONE =       -3042450.95       UNSATURATED ZONE =           9915.12
       SATURATED ZONE =         555408.60         SATURATED ZONE =          -1127.71

 OVERALL BUDGET ERROR =         201928.30           BUDGET ERROR =           4008.21


  PERCENT DISCREPANCY =              1.53    PERCENT DISCREPANCY =              2.65



1
 SUMMARY VOLUMETRIC BUDGET FOR GSFLOW 
 DATE: 05 05 1991              CUMULATIVE TIME STEP:       5
 MODFLOW STRESS PERIOD      9     CURRENT TIME STEP:     217     ITERATIONS:     185

 -----------------------------------------------------------------------------------

   CUMULATIVE VOLUMES               L**3   RATES FOR THIS TIME STEP           L**3/T
   ------------------                      ------------------------

                                     IN                                         IN
                                     --                                         --
        PRECIPITATION =        1.3510D+07          PRECIPITATION =                  
           STREAMFLOW =                               STREAMFLOW =                  
     GW BOUNDARY FLOW =            100.51       GW BOUNDARY FLOW =              1.27


                                    OUT                                        OUT
                                    ---                                        ---
   EVAPOTRANSPIRATION =        4062460.30     EVAPOTRANSPIRATION =          90410.24
           STREAMFLOW =        4819437.38             STREAMFLOW =          83372.88
     GW BOUNDARY FLOW =           7747.73       GW BOUNDARY FLOW =             35.41

   INFLOWS - OUTFLOWS =        4620163.23     INFLOWS - OUTFLOWS =        -173817.26
             --------                                   --------

 TOTAL STORAGE CHANGE =        4393813.24         STORAGE CHANGE =        -177141.87
       --------------                             --------------
         LAND SURFACE =        1036420.07           LAND SURFACE =        -150153.36
            SOIL ZONE =        5789247.79              SOIL ZONE =         -35398.87
     UNSATURATED ZONE =       -2980036.38       UNSATURATED ZONE =           7627.06
       SATURATED ZONE =         548178.31         SATURATED ZONE =            783.24

 OVERALL BUDGET ERROR =         226349.99           BUDGET ERROR =           3324.61


  PERCENT DISCREPANCY =              1.69    PERCENT DISCREPANCY =              1.89



1
 SUMMARY VOLUMETRIC BUDGET FOR GSFLOW 
 DATE: 05 12 1991              CUMULATIVE TIME STEP:      12
 MODFLOW STRESS PERIOD      9     CURRENT TIME STEP:     224     ITERATIONS:       7

 -----------------------------------------------------------------------------------

   CUMULATIVE VOLUMES               L**3   RATES FOR THIS TIME STEP           L**3/T
   ------------------                      ------------------------

                                     IN                                         IN
                                     --                                         --
        PRECIPITATION =        1.4029D+07          PRECIPITATION =                  
           STREAMFLOW =                               STREAMFLOW =                  
     GW BOUNDARY FLOW =            109.55       GW BOUNDARY FLOW =              1.31


                                    OUT                                        OUT
                                    ---                                        ---
   EVAPOTRANSPIRATION =        4458070.06     EVAPOTRANSPIRATION =          68952.27
           STREAMFLOW =        5365635.44             STREAMFLOW =          81263.49
     GW BOUNDARY FLOW =           7994.36       GW BOUNDARY FLOW =             35.19

   INFLOWS - OUTFLOWS =        4197631.84     INFLOWS - OUTFLOWS =        -150249.65
             --------                                   --------

 TOTAL STORAGE CHANGE =        3946986.04         STORAGE CHANGE =        -153315.02
       --------------                             --------------
         LAND SURFACE =         579124.41           LAND SURFACE =        -205427.93
            SOIL ZONE =        5751151.93              SOIL ZONE =          45295.88
     UNSATURATED ZONE =       -2921454.54       UNSATURATED ZONE =           8317.80
       SATURATED ZONE =         538160.36         SATURATED ZONE =          -1500.83

 OVERALL BUDGET ERROR =         250645.80           BUDGET ERROR =           3065.37


  PERCENT DISCREPANCY =              1.80    PERCENT DISCREPANCY =              2.02



1
 SUMMARY VOLUMETRIC BUDGET FOR GSFLOW 
 DATE: 05 19 1991              CUMULATIVE TIME STEP:      19
 MODFLOW STRESS PERIOD      9     CURRENT TIME STEP:     231     ITERATIONS:       6

 -----------------------------------------------------------------------------------

   CUMULATIVE VOLUMES               L**3   RATES FOR THIS TIME STEP           L**3/T
   ------------------                      ------------------------

                                     IN                                         IN
                                     --                                         --
        PRECIPITATION =        1.4365D+07          PRECIPITATION =                  
           STREAMFLOW =                               STREAMFLOW =                  
     GW BOUNDARY FLOW =            118.85       GW BOUNDARY FLOW =              1.35


                                    OUT                                        OUT
                                    ---                                        ---
   EVAPOTRANSPIRATION =        4896730.76     EVAPOTRANSPIRATION =          20444.02
           STREAMFLOW =        5840683.40             STREAMFLOW =          60059.68
     GW BOUNDARY FLOW =           8238.82       GW BOUNDARY FLOW =             34.74

   INFLOWS - OUTFLOWS =        3619844.19     INFLOWS - OUTFLOWS =         -80537.09
             --------                                   --------

 TOTAL STORAGE CHANGE =        3351717.86         STORAGE CHANGE =         -82360.68
       --------------                             --------------
         LAND SURFACE =         228252.15           LAND SURFACE =         -22354.64
            SOIL ZONE =        5471797.81              SOIL ZONE =         -63712.98
     UNSATURATED ZONE =       -2875323.56       UNSATURATED ZONE =           5306.46
       SATURATED ZONE =         526987.14         SATURATED ZONE =          -1599.58

 OVERALL BUDGET ERROR =         268126.33           BUDGET ERROR =           1823.59


  PERCENT DISCREPANCY =              1.88    PERCENT DISCREPANCY =              2.24



1
 SUMMARY VOLUMETRIC BUDGET FOR GSFLOW 
 DATE: 05 26 1991              CUMULATIVE TIME STEP:      26
 MODFLOW STRESS PERIOD      9     CURRENT TIME STEP:     238     ITERATIONS:       6

 -----------------------------------------------------------------------------------

   CUMULATIVE VOLUMES               L**3   RATES FOR THIS TIME STEP           L**3/T
   ------------------                      ------------------------

                                     IN                                         IN
                                     --                                         --
        PRECIPITATION =        1.4426D+07          PRECIPITATION =                  
           STREAMFLOW =                               STREAMFLOW =                  
     GW BOUNDARY FLOW =            128.44       GW BOUNDARY FLOW =              1.39


                                    OUT                                        OUT
                                    ---                                        ---
   EVAPOTRANSPIRATION =        5581358.49     EVAPOTRANSPIRATION =          76899.63
           STREAMFLOW =        6182389.41             STREAMFLOW =          36202.46
     GW BOUNDARY FLOW =           8480.11       GW BOUNDARY FLOW =             34.19

   INFLOWS - OUTFLOWS =        2654398.04     INFLOWS - OUTFLOWS =        -113134.89
             --------                                   --------

 TOTAL STORAGE CHANGE =        2377842.16         STORAGE CHANGE =        -113816.84
       --------------                             --------------
         LAND SURFACE =          55233.90           LAND SURFACE =          -8157.37
            SOIL ZONE =        4665614.91              SOIL ZONE =        -103065.85
     UNSATURATED ZONE =       -2856953.72       UNSATURATED ZONE =           -400.46
       SATURATED ZONE =         513942.30         SATURATED ZONE =          -2193.21

 OVERALL BUDGET ERROR =         276555.89           BUDGET ERROR =            681.95


  PERCENT DISCREPANCY =              1.94    PERCENT DISCREPANCY =              0.60



1
 SUMMARY VOLUMETRIC BUDGET FOR GSFLOW 
 DATE: 06 02 1991              CUMULATIVE TIME STEP:       2
 MODFLOW STRESS PERIOD     10     CURRENT TIME STEP:     245     ITERATIONS:       6

 -----------------------------------------------------------------------------------

   CUMULATIVE VOLUMES               L**3   RATES FOR THIS TIME STEP           L**3/T
   ------------------                      ------------------------

                                     IN                                         IN
                                     --                                         --
        PRECIPITATION =        1.4671D+07          PRECIPITATION =                  
           STREAMFLOW =                               STREAMFLOW =                  
     GW BOUNDARY FLOW =            138.32       GW BOUNDARY FLOW =              1.43


                                    OUT                                        OUT
                                    ---                                        ---
   EVAPOTRANSPIRATION =        6170538.26     EVAPOTRANSPIRATION =         127565.49
           STREAMFLOW =        6403359.55             STREAMFLOW =          27763.37
     GW BOUNDARY FLOW =           8718.16       GW BOUNDARY FLOW =             33.87

   INFLOWS - OUTFLOWS =        2088497.15     INFLOWS - OUTFLOWS =        -155361.29
             --------                                   --------

 TOTAL STORAGE CHANGE =        1808336.16         STORAGE CHANGE =        -154675.96
       --------------                             --------------
         LAND SURFACE =          19760.70           LAND SURFACE =          -4094.13
            SOIL ZONE =        4164089.39              SOIL ZONE =        -144646.22
     UNSATURATED ZONE =       -2871265.19       UNSATURATED ZONE =          -2984.03
       SATURATED ZONE =         495746.03         SATURATED ZONE =          -2951.64

 OVERALL BUDGET ERROR =         280160.99           BUDGET ERROR =           -685.33


  PERCENT DISCREPANCY =              1.93    PERCENT DISCREPANCY =             -0.44



1
 SUMMARY VOLUMETRIC BUDGET FOR GSFLOW 
 DATE: 06 09 1991              CUMULATIVE TIME STEP:       9
 MODFLOW STRESS PERIOD     10     CURRENT TIME STEP:     252     ITERATIONS:       6

 -----------------------------------------------------------------------------------

   CUMULATIVE VOLUMES               L**3   RATES FOR THIS TIME STEP           L**3/T
   ------------------                      ------------------------

                                     IN                                         IN
                                     --                                         --
        PRECIPITATION =        1.4671D+07          PRECIPITATION =                  
           STREAMFLOW =                               STREAMFLOW =                  
     GW BOUNDARY FLOW =            148.51       GW BOUNDARY FLOW =              1.47


                                    OUT                                        OUT
                                    ---                                        ---
   EVAPOTRANSPIRATION =        6959017.66     EVAPOTRANSPIRATION =         172470.54
           STREAMFLOW =        6559966.80             STREAMFLOW =          19024.22
     GW BOUNDARY FLOW =           8953.77       GW BOUNDARY FLOW =             33.52

   INFLOWS - OUTFLOWS =        1143185.08     INFLOWS - OUTFLOWS =        -191526.81
             --------                                   --------

 TOTAL STORAGE CHANGE =         868532.58         STORAGE CHANGE =        -190066.94
       --------------                             --------------
         LAND SURFACE =           3957.39           LAND SURFACE =          -2186.13
            SOIL ZONE =        3298574.66              SOIL ZONE =        -177998.80
     UNSATURATED ZONE =       -2905437.66       UNSATURATED ZONE =          -5945.05
       SATURATED ZONE =         471432.53         SATURATED ZONE =          -3937.03

 OVERALL BUDGET ERROR =         274652.49           BUDGET ERROR =          -1459.86


  PERCENT DISCREPANCY =              1.89    PERCENT DISCREPANCY =             -0.77



1
 SUMMARY VOLUMETRIC BUDGET FOR GSFLOW 
 DATE: 06 16 1991              CUMULATIVE TIME STEP:      16
 MODFLOW STRESS PERIOD     10     CURRENT TIME STEP:     259     ITERATIONS:       6

 -----------------------------------------------------------------------------------

   CUMULATIVE VOLUMES               L**3   RATES FOR THIS TIME STEP           L**3/T
   ------------------                      ------------------------

                                     IN                                         IN
                                     --                                         --
        PRECIPITATION =        1.4671D+07          PRECIPITATION =                  
           STREAMFLOW =                               STREAMFLOW =                  
     GW BOUNDARY FLOW =            159.00       GW BOUNDARY FLOW =              1.52


                                    OUT                                        OUT
                                    ---                                        ---
   EVAPOTRANSPIRATION =        7975080.03     EVAPOTRANSPIRATION =         116810.19
           STREAMFLOW =        6662406.56             STREAMFLOW =          12614.47
     GW BOUNDARY FLOW =           9185.95       GW BOUNDARY FLOW =             33.07

   INFLOWS - OUTFLOWS =          24461.26     INFLOWS - OUTFLOWS =        -129456.21
             --------                                   --------

 TOTAL STORAGE CHANGE =        -242207.03         STORAGE CHANGE =        -128783.75
       --------------                             --------------
         LAND SURFACE =            106.65           LAND SURFACE =            -66.98
            SOIL ZONE =        2306038.00              SOIL ZONE =        -107543.45
     UNSATURATED ZONE =       -2986545.54       UNSATURATED ZONE =         -15512.68
       SATURATED ZONE =         438187.75         SATURATED ZONE =          -5660.71

 OVERALL BUDGET ERROR =         266668.29           BUDGET ERROR =           -672.46


  PERCENT DISCREPANCY =              1.80    PERCENT DISCREPANCY =             -0.52



1
 SUMMARY VOLUMETRIC BUDGET FOR GSFLOW 
 DATE: 06 23 1991              CUMULATIVE TIME STEP:      23
 MODFLOW STRESS PERIOD     10     CURRENT TIME STEP:     266     ITERATIONS:       7

 -----------------------------------------------------------------------------------

   CUMULATIVE VOLUMES               L**3   RATES FOR THIS TIME STEP           L**3/T
   ------------------                      ------------------------

                                     IN                                         IN
                                     --                                         --
        PRECIPITATION =        1.4671D+07          PRECIPITATION =                  
           STREAMFLOW =                               STREAMFLOW =                  
     GW BOUNDARY FLOW =            169.80       GW BOUNDARY FLOW =              1.56


                                    OUT                                        OUT
                                    ---                                        ---
   EVAPOTRANSPIRATION =        8516161.95     EVAPOTRANSPIRATION =          38629.53
           STREAMFLOW =        6744207.44             STREAMFLOW =          12006.05
     GW BOUNDARY FLOW =           9416.63       GW BOUNDARY FLOW =             32.91

   INFLOWS - OUTFLOWS =        -598641.42     INFLOWS - OUTFLOWS =         -50666.93
             --------                                   --------

 TOTAL STORAGE CHANGE =        -862040.22         STORAGE CHANGE =         -50430.26
       --------------                             --------------
         LAND SURFACE =             16.57           LAND SURFACE =             -3.65
            SOIL ZONE =        1839786.67              SOIL ZONE =         -31424.83
     UNSATURATED ZONE =       -3094720.49       UNSATURATED ZONE =         -12490.10
       SATURATED ZONE =         392870.48         SATURATED ZONE =          -6511.73

 OVERALL BUDGET ERROR =         263398.80           BUDGET ERROR =           -236.67


  PERCENT DISCREPANCY =              1.71    PERCENT DISCREPANCY =             -0.47



1
 SUMMARY VOLUMETRIC BUDGET FOR GSFLOW 
 DATE: 06 30 1991              CUMULATIVE TIME STEP:      30
 MODFLOW STRESS PERIOD     10     CURRENT TIME STEP:     273     ITERATIONS:       8

 -----------------------------------------------------------------------------------

[...]
                                    ---                                        ---
   EVAPOTRANSPIRATION =        7.2883D+07     EVAPOTRANSPIRATION =          72682.48
           STREAMFLOW =        6.9746D+07             STREAMFLOW =           7679.32
     GW BOUNDARY FLOW =          50938.66       GW BOUNDARY FLOW =             24.11

   INFLOWS - OUTFLOWS =       -9165668.30     INFLOWS - OUTFLOWS =         -80382.44
             --------                                   --------

 TOTAL STORAGE CHANGE =       -1.1981D+07         STORAGE CHANGE =         -80100.14
       --------------                             --------------
         LAND SURFACE =         179293.22           LAND SURFACE =         -11102.33
            SOIL ZONE =        1393179.07              SOIL ZONE =         -50506.68
     UNSATURATED ZONE =         -37202.58       UNSATURATED ZONE =         -11607.81
       SATURATED ZONE =       -1.3517D+07         SATURATED ZONE =          -6883.83

 OVERALL BUDGET ERROR =        2815511.81           BUDGET ERROR =           -282.29


  PERCENT DISCREPANCY =              1.95    PERCENT DISCREPANCY =             -0.35



1
 SUMMARY VOLUMETRIC BUDGET FOR GSFLOW 
 DATE: 09 03 1995              CUMULATIVE TIME STEP:       3
 MODFLOW STRESS PERIOD     61     CURRENT TIME STEP:    1799     ITERATIONS:       7

 -----------------------------------------------------------------------------------

   CUMULATIVE VOLUMES               L**3   RATES FOR THIS TIME STEP           L**3/T
   ------------------                      ------------------------

                                     IN                                         IN
                                     --                                         --
        PRECIPITATION =        1.3351D+08          PRECIPITATION =                  
           STREAMFLOW =                               STREAMFLOW =                  
     GW BOUNDARY FLOW =           5644.14       GW BOUNDARY FLOW =              3.56


                                    OUT                                        OUT
                                    ---                                        ---
   EVAPOTRANSPIRATION =        7.3362D+07     EVAPOTRANSPIRATION =          63177.79
           STREAMFLOW =        6.9795D+07             STREAMFLOW =           6725.99
     GW BOUNDARY FLOW =          51106.92       GW BOUNDARY FLOW =             23.98

   INFLOWS - OUTFLOWS =       -9694059.00     INFLOWS - OUTFLOWS =         -69924.21
             --------                                   --------

 TOTAL STORAGE CHANGE =       -1.2508D+07         STORAGE CHANGE =         -69910.20
       --------------                             --------------
         LAND SURFACE =         114525.52           LAND SURFACE =          -7766.54
            SOIL ZONE =        1060352.38              SOIL ZONE =         -43689.85
     UNSATURATED ZONE =        -113491.99       UNSATURATED ZONE =         -10667.55
       SATURATED ZONE =       -1.3570D+07         SATURATED ZONE =          -7786.77

 OVERALL BUDGET ERROR =        2814365.45           BUDGET ERROR =            -14.01


  PERCENT DISCREPANCY =              1.95    PERCENT DISCREPANCY =             -0.02



1
 SUMMARY VOLUMETRIC BUDGET FOR GSFLOW 
 DATE: 09 10 1995              CUMULATIVE TIME STEP:      10
 MODFLOW STRESS PERIOD     61     CURRENT TIME STEP:    1806     ITERATIONS:       7

 -----------------------------------------------------------------------------------

   CUMULATIVE VOLUMES               L**3   RATES FOR THIS TIME STEP           L**3/T
   ------------------                      ------------------------

                                     IN                                         IN
                                     --                                         --
        PRECIPITATION =        1.3351D+08          PRECIPITATION =                  
           STREAMFLOW =                               STREAMFLOW =                  
     GW BOUNDARY FLOW =           5669.43       GW BOUNDARY FLOW =              3.65


                                    OUT                                        OUT
                                    ---                                        ---
   EVAPOTRANSPIRATION =        7.3716D+07     EVAPOTRANSPIRATION =          47309.44
           STREAMFLOW =        6.9843D+07             STREAMFLOW =           6713.50
     GW BOUNDARY FLOW =          51274.92       GW BOUNDARY FLOW =             23.99

   INFLOWS - OUTFLOWS =       -1.0096D+07     INFLOWS - OUTFLOWS =         -54043.27
             --------                                   --------

 TOTAL STORAGE CHANGE =       -1.2910D+07         STORAGE CHANGE =         -54033.95
       --------------                             --------------
         LAND SURFACE =          75925.35           LAND SURFACE =          -4673.87
            SOIL ZONE =         819092.33              SOIL ZONE =         -31589.07
     UNSATURATED ZONE =        -184378.42       UNSATURATED ZONE =         -10238.92
       SATURATED ZONE =       -1.3621D+07         SATURATED ZONE =          -7532.60

 OVERALL BUDGET ERROR =        2814302.54           BUDGET ERROR =             -9.33


  PERCENT DISCREPANCY =              1.94    PERCENT DISCREPANCY =             -0.02



1
 SUMMARY VOLUMETRIC BUDGET FOR GSFLOW 
 DATE: 09 17 1995              CUMULATIVE TIME STEP:      17
 MODFLOW STRESS PERIOD     61     CURRENT TIME STEP:    1813     ITERATIONS:       7

 -----------------------------------------------------------------------------------

   CUMULATIVE VOLUMES               L**3   RATES FOR THIS TIME STEP           L**3/T
   ------------------                      ------------------------

                                     IN                                         IN
                                     --                                         --
        PRECIPITATION =        1.3351D+08          PRECIPITATION =                  
           STREAMFLOW =                               STREAMFLOW =                  
     GW BOUNDARY FLOW =           5695.33       GW BOUNDARY FLOW =              3.74


                                    OUT                                        OUT
                                    ---                                        ---
   EVAPOTRANSPIRATION =        7.4097D+07     EVAPOTRANSPIRATION =          43191.21
           STREAMFLOW =        6.9883D+07             STREAMFLOW =           5852.82
     GW BOUNDARY FLOW =          51442.11       GW BOUNDARY FLOW =             23.90

   INFLOWS - OUTFLOWS =       -1.0517D+07     INFLOWS - OUTFLOWS =         -49064.20
             --------                                   --------

 TOTAL STORAGE CHANGE =       -1.3331D+07         STORAGE CHANGE =         -49054.68
       --------------                             --------------
         LAND SURFACE =          44186.54           LAND SURFACE =          -3043.17
            SOIL ZONE =         573259.62              SOIL ZONE =         -26762.68
     UNSATURATED ZONE =        -259798.85       UNSATURATED ZONE =         -10448.16
       SATURATED ZONE =       -1.3689D+07         SATURATED ZONE =          -8801.17

 OVERALL BUDGET ERROR =        2814209.94           BUDGET ERROR =             -9.52


  PERCENT DISCREPANCY =              1.93    PERCENT DISCREPANCY =             -0.02



1
 SUMMARY VOLUMETRIC BUDGET FOR GSFLOW 
 DATE: 09 24 1995              CUMULATIVE TIME STEP:      24
 MODFLOW STRESS PERIOD     61     CURRENT TIME STEP:    1820     ITERATIONS:       7

 -----------------------------------------------------------------------------------

   CUMULATIVE VOLUMES               L**3   RATES FOR THIS TIME STEP           L**3/T
   ------------------                      ------------------------

                                     IN                                         IN
                                     --                                         --
        PRECIPITATION =        1.3351D+08          PRECIPITATION =                  
           STREAMFLOW =                               STREAMFLOW =                  
     GW BOUNDARY FLOW =           5721.83       GW BOUNDARY FLOW =              3.82


                                    OUT                                        OUT
                                    ---                                        ---
   EVAPOTRANSPIRATION =        7.4363D+07     EVAPOTRANSPIRATION =          27519.10
           STREAMFLOW =        6.9925D+07             STREAMFLOW =           6474.90
     GW BOUNDARY FLOW =          51609.42       GW BOUNDARY FLOW =             23.95

   INFLOWS - OUTFLOWS =       -1.0825D+07     INFLOWS - OUTFLOWS =         -34014.12
             --------                                   --------

 TOTAL STORAGE CHANGE =       -1.3639D+07         STORAGE CHANGE =         -34008.64
       --------------                             --------------
         LAND SURFACE =          28055.76           LAND SURFACE =          -1559.79
            SOIL ZONE =         416011.51              SOIL ZONE =         -15677.48
     UNSATURATED ZONE =        -330513.62       UNSATURATED ZONE =          -8994.78
       SATURATED ZONE =       -1.3753D+07         SATURATED ZONE =          -7777.09

 OVERALL BUDGET ERROR =        2814149.50           BUDGET ERROR =             -5.49


  PERCENT DISCREPANCY =              1.93    PERCENT DISCREPANCY =             -0.02



1
 SUMMARY VOLUMETRIC BUDGET FOR GSFLOW 
 DATE: 10 01 1995              CUMULATIVE TIME STEP:       1
 MODFLOW STRESS PERIOD     62     CURRENT TIME STEP:    1827     ITERATIONS:       6

 -----------------------------------------------------------------------------------

   CUMULATIVE VOLUMES               L**3   RATES FOR THIS TIME STEP           L**3/T
   ------------------                      ------------------------

                                     IN                                         IN
                                     --                                         --
        PRECIPITATION =        1.3351D+08          PRECIPITATION =                  
           STREAMFLOW =                               STREAMFLOW =                  
     GW BOUNDARY FLOW =           5748.90       GW BOUNDARY FLOW =              3.90


                                    OUT                                        OUT
                                    ---                                        ---
   EVAPOTRANSPIRATION =        7.4479D+07     EVAPOTRANSPIRATION =          16824.60
           STREAMFLOW =        6.9977D+07             STREAMFLOW =           7446.66
     GW BOUNDARY FLOW =          51777.63       GW BOUNDARY FLOW =             24.04

   INFLOWS - OUTFLOWS =       -1.0993D+07     INFLOWS - OUTFLOWS =         -24291.39
             --------                                   --------

 TOTAL STORAGE CHANGE =       -1.3807D+07         STORAGE CHANGE =         -24291.86
       --------------                             --------------
         LAND SURFACE =          22241.70           LAND SURFACE =           -699.89
            SOIL ZONE =         352615.84              SOIL ZONE =          -9279.47
     UNSATURATED ZONE =        -387069.80       UNSATURATED ZONE =          -7931.15
       SATURATED ZONE =       -1.3795D+07         SATURATED ZONE =          -6381.87

 OVERALL BUDGET ERROR =        2814144.01           BUDGET ERROR =              0.47


  PERCENT DISCREPANCY =              1.93    PERCENT DISCREPANCY =              0.00



1
 SUMMARY VOLUMETRIC BUDGET FOR GSFLOW 
 DATE: 10 08 1995              CUMULATIVE TIME STEP:       8
 MODFLOW STRESS PERIOD     62     CURRENT TIME STEP:    1834     ITERATIONS:       6

 -----------------------------------------------------------------------------------

   CUMULATIVE VOLUMES               L**3   RATES FOR THIS TIME STEP           L**3/T
   ------------------                      ------------------------

                                     IN                                         IN
                                     --                                         --
        PRECIPITATION =        1.3351D+08          PRECIPITATION =                  
           STREAMFLOW =                               STREAMFLOW =                  
     GW BOUNDARY FLOW =           5776.50       GW BOUNDARY FLOW =              3.97


                                    OUT                                        OUT
                                    ---                                        ---
   EVAPOTRANSPIRATION =        7.4602D+07     EVAPOTRANSPIRATION =          15522.87
           STREAMFLOW =        7.0027D+07             STREAMFLOW =           7348.21
     GW BOUNDARY FLOW =          51945.78       GW BOUNDARY FLOW =             24.03

   INFLOWS - OUTFLOWS =       -1.1167D+07     INFLOWS - OUTFLOWS =         -22891.14
             --------                                   --------

 TOTAL STORAGE CHANGE =       -1.3981D+07         STORAGE CHANGE =         -22890.75
       --------------                             --------------
         LAND SURFACE =          18179.46           LAND SURFACE =           -628.45
            SOIL ZONE =         284760.56              SOIL ZONE =          -8224.78
     UNSATURATED ZONE =        -441113.24       UNSATURATED ZONE =          -7333.22
       SATURATED ZONE =       -1.3844D+07         SATURATED ZONE =          -6704.81

 OVERALL BUDGET ERROR =        2814131.65           BUDGET ERROR =             -0.39


  PERCENT DISCREPANCY =              1.93    PERCENT DISCREPANCY =             -0.00



1
 SUMMARY VOLUMETRIC BUDGET FOR GSFLOW 
 DATE: 10 15 1995              CUMULATIVE TIME STEP:      15
 MODFLOW STRESS PERIOD     62     CURRENT TIME STEP:    1841     ITERATIONS:       5

 -----------------------------------------------------------------------------------

   CUMULATIVE VOLUMES               L**3   RATES FOR THIS TIME STEP           L**3/T
   ------------------                      ------------------------

                                     IN                                         IN
                                     --                                         --
        PRECIPITATION =        1.3351D+08          PRECIPITATION =                  
           STREAMFLOW =                               STREAMFLOW =                  
     GW BOUNDARY FLOW =           5804.60       GW BOUNDARY FLOW =              4.04


                                    OUT                                        OUT
                                    ---                                        ---
   EVAPOTRANSPIRATION =        7.4719D+07     EVAPOTRANSPIRATION =          18122.52
           STREAMFLOW =        7.0077D+07             STREAMFLOW =           6937.24
     GW BOUNDARY FLOW =          52113.89       GW BOUNDARY FLOW =             24.00

   INFLOWS - OUTFLOWS =       -1.1334D+07     INFLOWS - OUTFLOWS =         -25079.72
             --------                                   --------

 TOTAL STORAGE CHANGE =       -1.4148D+07         STORAGE CHANGE =         -25078.86
       --------------                             --------------
         LAND SURFACE =          14037.99           LAND SURFACE =           -696.58
            SOIL ZONE =         223628.25              SOIL ZONE =          -9343.41
     UNSATURATED ZONE =        -490256.99       UNSATURATED ZONE =          -6933.43
       SATURATED ZONE =       -1.3896D+07         SATURATED ZONE =          -8105.95

 OVERALL BUDGET ERROR =        2814113.18           BUDGET ERROR =             -0.86


  PERCENT DISCREPANCY =              1.92    PERCENT DISCREPANCY =             -0.00



1
 SUMMARY VOLUMETRIC BUDGET FOR GSFLOW 
 DATE: 10 22 1995              CUMULATIVE TIME STEP:      22
 MODFLOW STRESS PERIOD     62     CURRENT TIME STEP:    1848     ITERATIONS:      13

 -----------------------------------------------------------------------------------

   CUMULATIVE VOLUMES               L**3   RATES FOR THIS TIME STEP           L**3/T
   ------------------                      ------------------------

                                     IN                                         IN
                                     --                                         --
        PRECIPITATION =        1.3351D+08          PRECIPITATION =                  
           STREAMFLOW =                               STREAMFLOW =                  
     GW BOUNDARY FLOW =           5833.15       GW BOUNDARY FLOW =              4.10


                                    OUT                                        OUT
                                    ---                                        ---
   EVAPOTRANSPIRATION =        7.4822D+07     EVAPOTRANSPIRATION =           4714.42
           STREAMFLOW =        7.0127D+07             STREAMFLOW =           8097.86
     GW BOUNDARY FLOW =          52282.03       GW BOUNDARY FLOW =             24.11

   INFLOWS - OUTFLOWS =       -1.1487D+07     INFLOWS - OUTFLOWS =         -12832.29
             --------                                   --------

 TOTAL STORAGE CHANGE =       -1.4302D+07         STORAGE CHANGE =         -12833.75
       --------------                             --------------
         LAND SURFACE =          10452.80           LAND SURFACE =             -6.45
            SOIL ZONE =         172149.65              SOIL ZONE =          -2082.63
     UNSATURATED ZONE =        -535851.48       UNSATURATED ZONE =          -6050.62
       SATURATED ZONE =       -1.3949D+07         SATURATED ZONE =          -4694.56

 OVERALL BUDGET ERROR =        2814096.70           BUDGET ERROR =              1.46


  PERCENT DISCREPANCY =              1.92    PERCENT DISCREPANCY =              0.01



1
 SUMMARY VOLUMETRIC BUDGET FOR GSFLOW 
 DATE: 10 29 1995              CUMULATIVE TIME STEP:      29
 MODFLOW STRESS PERIOD     62     CURRENT TIME STEP:    1855     ITERATIONS:       6

 -----------------------------------------------------------------------------------

   CUMULATIVE VOLUMES               L**3   RATES FOR THIS TIME STEP           L**3/T
   ------------------                      ------------------------

                                     IN                                         IN
                                     --                                         --
        PRECIPITATION =        1.3351D+08          PRECIPITATION =                  
           STREAMFLOW =                               STREAMFLOW =                  
     GW BOUNDARY FLOW =           5862.11       GW BOUNDARY FLOW =              4.17


                                    OUT                                        OUT
                                    ---                                        ---
   EVAPOTRANSPIRATION =        7.4888D+07     EVAPOTRANSPIRATION =          11352.89
           STREAMFLOW =        7.0181D+07             STREAMFLOW =           7441.76
     GW BOUNDARY FLOW =          52450.59       GW BOUNDARY FLOW =             24.06

   INFLOWS - OUTFLOWS =       -1.1607D+07     INFLOWS - OUTFLOWS =         -18814.55
             --------                                   --------

 TOTAL STORAGE CHANGE =       -1.4421D+07         STORAGE CHANGE =         -18814.02
       --------------                             --------------
         LAND SURFACE =           9254.99           LAND SURFACE =           -359.13
            SOIL ZONE =         141833.34              SOIL ZONE =          -5080.87
     UNSATURATED ZONE =        -579035.25       UNSATURATED ZONE =          -6167.92
       SATURATED ZONE =       -1.3994D+07         SATURATED ZONE =          -7206.61

 OVERALL BUDGET ERROR =        2814095.57           BUDGET ERROR =             -0.53


  PERCENT DISCREPANCY =              1.92    PERCENT DISCREPANCY =             -0.00



