1
 SUMMARY VOLUMETRIC BUDGET FOR GSFLOW 
 DATE: 10 07 1990              CUMULATIVE TIME STEP:       7
 MODFLOW STRESS PERIOD      2     CURRENT TIME STEP:       7     ITERATIONS:       7

 -----------------------------------------------------------------------------------

   CUMULATIVE VOLUMES               L**3   RATES FOR THIS TIME STEP           L**3/T
   ------------------                      ------------------------

                                     IN                                         IN
                                     --                                         --
        PRECIPITATION =                            PRECIPITATION =                  
           STREAMFLOW =                               STREAMFLOW =                  
     GW BOUNDARY FLOW =                         GW BOUNDARY FLOW =                  


                                    OUT                                        OUT
                                    ---                                        ---
   EVAPOTRANSPIRATION =         382474.05     EVAPOTRANSPIRATION =          12595.07
           STREAMFLOW =          45678.84             STREAMFLOW =           8117.34
     GW BOUNDARY FLOW =            252.78       GW BOUNDARY FLOW =             36.30

   INFLOWS - OUTFLOWS =        -428405.67     INFLOWS - OUTFLOWS =         -20748.71
             --------                                   --------

 TOTAL STORAGE CHANGE =        -426932.10         STORAGE CHANGE =         -20723.07
       --------------                             --------------
         LAND SURFACE =                             LAND SURFACE =                  
            SOIL ZONE =         -33207.99              SOIL ZONE =          -1003.50
     UNSATURATED ZONE =        -500660.07       UNSATURATED ZONE =         -34258.69
       SATURATED ZONE =         106935.96         SATURATED ZONE =          14539.12

 OVERALL BUDGET ERROR =          -1473.57           BUDGET ERROR =            -25.64


  PERCENT DISCREPANCY =             -0.34    PERCENT DISCREPANCY =             -0.12



1
 SUMMARY VOLUMETRIC BUDGET FOR GSFLOW 
 DATE: 10 14 1990              CUMULATIVE TIME STEP:      14
 MODFLOW STRESS PERIOD      2     CURRENT TIME STEP:      14     ITERATIONS:       6

 -----------------------------------------------------------------------------------

   CUMULATIVE VOLUMES               L**3   RATES FOR THIS TIME STEP           L**3/T
   ------------------                      ------------------------

                                     IN                                         IN
                                     --                                         --
        PRECIPITATION =                            PRECIPITATION =                  
           STREAMFLOW =                               STREAMFLOW =                  
     GW BOUNDARY FLOW =                         GW BOUNDARY FLOW =                  


                                    OUT                                        OUT
                                    ---                                        ---
   EVAPOTRANSPIRATION =         661810.72     EVAPOTRANSPIRATION =          42901.91
           STREAMFLOW =         100405.36             STREAMFLOW =           7405.18
     GW BOUNDARY FLOW =            506.62       GW BOUNDARY FLOW =             36.24

   INFLOWS - OUTFLOWS =        -762722.69     INFLOWS - OUTFLOWS =         -50343.33
             --------                                   --------

 TOTAL STORAGE CHANGE =        -760981.47         STORAGE CHANGE =         -50324.85
       --------------                             --------------
         LAND SURFACE =                             LAND SURFACE =                  
            SOIL ZONE =         -57924.93              SOIL ZONE =          -4415.39
     UNSATURATED ZONE =        -875124.16       UNSATURATED ZONE =         -52618.24
       SATURATED ZONE =         172067.62         SATURATED ZONE =           6708.77

 OVERALL BUDGET ERROR =          -1741.22           BUDGET ERROR =            -18.48


  PERCENT DISCREPANCY =             -0.23    PERCENT DISCREPANCY =             -0.04



1
 SUMMARY VOLUMETRIC BUDGET FOR GSFLOW 
 DATE: 10 21 1990              CUMULATIVE TIME STEP:      21
 MODFLOW STRESS PERIOD      2     CURRENT TIME STEP:      21     ITERATIONS:       6

 -----------------------------------------------------------------------------------

   CUMULATIVE VOLUMES               L**3   RATES FOR THIS TIME STEP           L**3/T
   ------------------                      ------------------------

                                     IN                                         IN
                                     --                                         --
        PRECIPITATION =         188432.87          PRECIPITATION =                  
           STREAMFLOW =                               STREAMFLOW =                  
     GW BOUNDARY FLOW =                         GW BOUNDARY FLOW =                  


                                    OUT                                        OUT
                                    ---                                        ---
   EVAPOTRANSPIRATION =         804097.18     EVAPOTRANSPIRATION =          36525.61
           STREAMFLOW =         163305.81             STREAMFLOW =          10129.05
     GW BOUNDARY FLOW =            760.80       GW BOUNDARY FLOW =             36.37

   INFLOWS - OUTFLOWS =        -779730.93     INFLOWS - OUTFLOWS =         -46691.02
             --------                                   --------

 TOTAL STORAGE CHANGE =        -779203.77         STORAGE CHANGE =         -46698.97
       --------------                             --------------
         LAND SURFACE =          15977.62           LAND SURFACE =         -34861.64
            SOIL ZONE =          56433.81              SOIL ZONE =           -457.07
     UNSATURATED ZONE =       -1087322.88       UNSATURATED ZONE =         -21997.23
       SATURATED ZONE =         235707.67         SATURATED ZONE =          10616.96

 OVERALL BUDGET ERROR =           -527.16           BUDGET ERROR =              7.95


  PERCENT DISCREPANCY =             -0.05    PERCENT DISCREPANCY =              0.02



1
 SUMMARY VOLUMETRIC BUDGET FOR GSFLOW 
 DATE: 10 28 1990              CUMULATIVE TIME STEP:      28
 MODFLOW STRESS PERIOD      2     CURRENT TIME STEP:      28     ITERATIONS:       7

 -----------------------------------------------------------------------------------

   CUMULATIVE VOLUMES               L**3   RATES FOR THIS TIME STEP           L**3/T
   ------------------                      ------------------------

                                     IN                                         IN
                                     --                                         --
        PRECIPITATION =         188432.87          PRECIPITATION =                  
           STREAMFLOW =                               STREAMFLOW =                  
     GW BOUNDARY FLOW =                         GW BOUNDARY FLOW =                  


                                    OUT                                        OUT
                                    ---                                        ---
   EVAPOTRANSPIRATION =         929202.45     EVAPOTRANSPIRATION =          11270.78
           STREAMFLOW =         224791.89             STREAMFLOW =           8969.03
     GW BOUNDARY FLOW =           1013.99       GW BOUNDARY FLOW =             36.13

   INFLOWS - OUTFLOWS =        -966575.46     INFLOWS - OUTFLOWS =         -20275.94
             --------                                   --------

 TOTAL STORAGE CHANGE =        -966038.37         STORAGE CHANGE =         -20274.23
       --------------                             --------------
         LAND SURFACE =                             LAND SURFACE =                  
            SOIL ZONE =          28182.38              SOIL ZONE =          -3308.52
     UNSATURATED ZONE =       -1271676.05       UNSATURATED ZONE =         -23142.47
       SATURATED ZONE =         277455.29         SATURATED ZONE =           6176.76

 OVERALL BUDGET ERROR =           -537.09           BUDGET ERROR =             -1.71


  PERCENT DISCREPANCY =             -0.05    PERCENT DISCREPANCY =             -0.01



1
 SUMMARY VOLUMETRIC BUDGET FOR GSFLOW 
 DATE: 11 04 1990              CUMULATIVE TIME STEP:       4
 MODFLOW STRESS PERIOD      3     CURRENT TIME STEP:      35     ITERATIONS:       6

 -----------------------------------------------------------------------------------

   CUMULATIVE VOLUMES               L**3   RATES FOR THIS TIME STEP           L**3/T
   ------------------                      ------------------------

                                     IN                                         IN
                                     --                                         --
        PRECIPITATION =         703113.06          PRECIPITATION =                  
           STREAMFLOW =                               STREAMFLOW =                  
     GW BOUNDARY FLOW =                         GW BOUNDARY FLOW =                  


                                    OUT                                        OUT
                                    ---                                        ---
   EVAPOTRANSPIRATION =         988446.80     EVAPOTRANSPIRATION =          25493.99
           STREAMFLOW =         295844.29             STREAMFLOW =          10645.01
     GW BOUNDARY FLOW =           1267.04       GW BOUNDARY FLOW =             36.13

   INFLOWS - OUTFLOWS =        -582445.06     INFLOWS - OUTFLOWS =         -36175.14
             --------                                   --------

 TOTAL STORAGE CHANGE =        -586836.42         STORAGE CHANGE =         -37445.39
       --------------                             --------------
         LAND SURFACE =          71009.70           LAND SURFACE =         -84159.07
            SOIL ZONE =         421259.79              SOIL ZONE =          57445.54
     UNSATURATED ZONE =       -1417192.04       UNSATURATED ZONE =         -20044.14
       SATURATED ZONE =         338086.12         SATURATED ZONE =           9312.28

 OVERALL BUDGET ERROR =           4391.36           BUDGET ERROR =           1270.25

  ***WARNING, FLUX RATES OFF > 3%

  PERCENT DISCREPANCY =              0.34    PERCENT DISCREPANCY =              3.45



1
 SUMMARY VOLUMETRIC BUDGET FOR GSFLOW 
 DATE: 11 11 1990              CUMULATIVE TIME STEP:      11
 MODFLOW STRESS PERIOD      3     CURRENT TIME STEP:      42     ITERATIONS:       6

 -----------------------------------------------------------------------------------

   CUMULATIVE VOLUMES               L**3   RATES FOR THIS TIME STEP           L**3/T
   ------------------                      ------------------------

                                     IN                                         IN
                                     --                                         --
        PRECIPITATION =         703113.06          PRECIPITATION =                  
           STREAMFLOW =                               STREAMFLOW =                  
     GW BOUNDARY FLOW =                         GW BOUNDARY FLOW =                  


                                    OUT                                        OUT
                                    ---                                        ---
   EVAPOTRANSPIRATION =        1061105.09     EVAPOTRANSPIRATION =          12475.69
           STREAMFLOW =         366984.68             STREAMFLOW =           9666.16
     GW BOUNDARY FLOW =           1519.15       GW BOUNDARY FLOW =             35.93

   INFLOWS - OUTFLOWS =        -726495.86     INFLOWS - OUTFLOWS =         -22177.78
             --------                                   --------

 TOTAL STORAGE CHANGE =        -731074.53         STORAGE CHANGE =         -22178.53
       --------------                             --------------
         LAND SURFACE =            295.92           LAND SURFACE =           -859.89
            SOIL ZONE =         438064.89              SOIL ZONE =          -6304.12
     UNSATURATED ZONE =       -1556950.22       UNSATURATED ZONE =         -19964.11
       SATURATED ZONE =         387514.85         SATURATED ZONE =           4949.58

 OVERALL BUDGET ERROR =           4578.68           BUDGET ERROR =              0.75


  PERCENT DISCREPANCY =              0.32    PERCENT DISCREPANCY =              0.00



1
 SUMMARY VOLUMETRIC BUDGET FOR GSFLOW 
 DATE: 11 18 1990              CUMULATIVE TIME STEP:      18
 MODFLOW STRESS PERIOD      3     CURRENT TIME STEP:      49     ITERATIONS:       6

 -----------------------------------------------------------------------------------

   CUMULATIVE VOLUMES               L**3   RATES FOR THIS TIME STEP           L**3/T
   ------------------                      ------------------------

                                     IN                                         IN
                                     --                                         --
        PRECIPITATION =         747883.35          PRECIPITATION =                  
           STREAMFLOW =                               STREAMFLOW =                  
     GW BOUNDARY FLOW =                         GW BOUNDARY FLOW =                  


                                    OUT                                        OUT
                                    ---                                        ---
   EVAPOTRANSPIRATION =        1129993.95     EVAPOTRANSPIRATION =           5352.44
           STREAMFLOW =         438808.40             STREAMFLOW =          10689.90
     GW BOUNDARY FLOW =           1770.46       GW BOUNDARY FLOW =             35.88

   INFLOWS - OUTFLOWS =        -822689.46     INFLOWS - OUTFLOWS =         -16078.22
             --------                                   --------

 TOTAL STORAGE CHANGE =        -827308.32         STORAGE CHANGE =         -16089.65
       --------------                             --------------
         LAND SURFACE =          10077.61           LAND SURFACE =          -4199.79
            SOIL ZONE =         420776.87              SOIL ZONE =           -601.01
     UNSATURATED ZONE =       -1690416.59       UNSATURATED ZONE =         -18627.20
       SATURATED ZONE =         432253.75         SATURATED ZONE =           7338.35

 OVERALL BUDGET ERROR =           4618.86           BUDGET ERROR =             11.42


  PERCENT DISCREPANCY =              0.29    PERCENT DISCREPANCY =              0.07



1
 SUMMARY VOLUMETRIC BUDGET FOR GSFLOW 
 DATE: 11 25 1990              CUMULATIVE TIME STEP:      25
 MODFLOW STRESS PERIOD      3     CURRENT TIME STEP:      56     ITERATIONS:       6

 -----------------------------------------------------------------------------------

   CUMULATIVE VOLUMES               L**3   RATES FOR THIS TIME STEP           L**3/T
   ------------------                      ------------------------

                                     IN                                         IN
                                     --                                         --
        PRECIPITATION =        1009043.38          PRECIPITATION =         186542.88
           STREAMFLOW =                               STREAMFLOW =                  
     GW BOUNDARY FLOW =                         GW BOUNDARY FLOW =                  


                                    OUT                                        OUT
                                    ---                                        ---
   EVAPOTRANSPIRATION =        1189805.37     EVAPOTRANSPIRATION =           3824.89
           STREAMFLOW =         514844.13             STREAMFLOW =          10889.05
     GW BOUNDARY FLOW =           2021.40       GW BOUNDARY FLOW =             35.79

   INFLOWS - OUTFLOWS =        -697627.52     INFLOWS - OUTFLOWS =         171793.14
             --------                                   --------

 TOTAL STORAGE CHANGE =        -704392.14         STORAGE CHANGE =         169940.72
       --------------                             --------------
         LAND SURFACE =          92124.67           LAND SURFACE =          75233.82
            SOIL ZONE =         539869.88              SOIL ZONE =         106287.47
     UNSATURATED ZONE =       -1818008.74       UNSATURATED ZONE =         -17920.54
       SATURATED ZONE =         481621.99         SATURATED ZONE =           6339.97

 OVERALL BUDGET ERROR =           6764.62           BUDGET ERROR =           1852.42


  PERCENT DISCREPANCY =              0.40    PERCENT DISCREPANCY =              1.00



1
 SUMMARY VOLUMETRIC BUDGET FOR GSFLOW 
 DATE: 12 02 1990              CUMULATIVE TIME STEP:       2
 MODFLOW STRESS PERIOD      4     CURRENT TIME STEP:      63     ITERATIONS:       6

 -----------------------------------------------------------------------------------

   CUMULATIVE VOLUMES               L**3   RATES FOR THIS TIME STEP           L**3/T
   ------------------                      ------------------------

                                     IN                                         IN
                                     --                                         --
        PRECIPITATION =        1449284.55          PRECIPITATION =                  
           STREAMFLOW =                               STREAMFLOW =                  
     GW BOUNDARY FLOW =                         GW BOUNDARY FLOW =                  


                                    OUT                                        OUT
                                    ---                                        ---
   EVAPOTRANSPIRATION =        1197373.77     EVAPOTRANSPIRATION =            374.47
           STREAMFLOW =         592092.81             STREAMFLOW =          11080.92
     GW BOUNDARY FLOW =           2271.88       GW BOUNDARY FLOW =             35.77

   INFLOWS - OUTFLOWS =        -342453.92     INFLOWS - OUTFLOWS =         -11491.16
             --------                                   --------

 TOTAL STORAGE CHANGE =        -350327.54         STORAGE CHANGE =         -11503.85
       --------------                             --------------
         LAND SURFACE =         493448.43           LAND SURFACE =           -453.37
            SOIL ZONE =         570444.63              SOIL ZONE =            121.26
     UNSATURATED ZONE =       -1940866.52       UNSATURATED ZONE =         -17258.78
       SATURATED ZONE =         526645.84         SATURATED ZONE =           6087.04

 OVERALL BUDGET ERROR =           7873.62           BUDGET ERROR =             12.69


  PERCENT DISCREPANCY =              0.44    PERCENT DISCREPANCY =              0.11



1
 SUMMARY VOLUMETRIC BUDGET FOR GSFLOW 
 DATE: 12 09 1990              CUMULATIVE TIME STEP:       9
 MODFLOW STRESS PERIOD      4     CURRENT TIME STEP:      70     ITERATIONS:       6

 -----------------------------------------------------------------------------------

   CUMULATIVE VOLUMES               L**3   RATES FOR THIS TIME STEP           L**3/T
   ------------------                      ------------------------

                                     IN                                         IN
                                     --                                         --
        PRECIPITATION =        1449284.55          PRECIPITATION =                  
           STREAMFLOW =                               STREAMFLOW =                  
     GW BOUNDARY FLOW =                         GW BOUNDARY FLOW =                  


                                    OUT                                        OUT
                                    ---                                        ---
   EVAPOTRANSPIRATION =        1274259.45     EVAPOTRANSPIRATION =          13594.07
           STREAMFLOW =         669775.56             STREAMFLOW =          10876.35
     GW BOUNDARY FLOW =           2521.84       GW BOUNDARY FLOW =             35.64

   INFLOWS - OUTFLOWS =        -497272.30     INFLOWS - OUTFLOWS =         -24506.06
             --------                                   --------

 TOTAL STORAGE CHANGE =        -509614.62         STORAGE CHANGE =         -24627.27
       --------------                             --------------
         LAND SURFACE =          66382.66           LAND SURFACE =         -46525.53
            SOIL ZONE =         919911.72              SOIL ZONE =          34651.70
     UNSATURATED ZONE =       -2058652.48       UNSATURATED ZONE =         -16495.68
       SATURATED ZONE =         562743.36         SATURATED ZONE =           3742.23

 OVERALL BUDGET ERROR =          12342.32           BUDGET ERROR =            121.21


  PERCENT DISCREPANCY =              0.63    PERCENT DISCREPANCY =              0.49



1
 SUMMARY VOLUMETRIC BUDGET FOR GSFLOW 
 DATE: 12 16 1990              CUMULATIVE TIME STEP:      16
 MODFLOW STRESS PERIOD      4     CURRENT TIME STEP:      77     ITERATIONS:       6

 -----------------------------------------------------------------------------------

   CUMULATIVE VOLUMES               L**3   RATES FOR THIS TIME STEP           L**3/T
   ------------------                      ------------------------

                                     IN                                         IN
                                     --                                         --
        PRECIPITATION =        1804962.84          PRECIPITATION =                  
           STREAMFLOW =                               STREAMFLOW =                  
     GW BOUNDARY FLOW =                         GW BOUNDARY FLOW =                  


                                    OUT                                        OUT
                                    ---                                        ---
   EVAPOTRANSPIRATION =        1302568.81     EVAPOTRANSPIRATION =                  
           STREAMFLOW =         749488.89             STREAMFLOW =          11517.84
     GW BOUNDARY FLOW =           2771.25       GW BOUNDARY FLOW =             35.61

   INFLOWS - OUTFLOWS =        -249866.11     INFLOWS - OUTFLOWS =         -11553.45
             --------                                   --------

 TOTAL STORAGE CHANGE =        -264501.41         STORAGE CHANGE =         -11568.52
       --------------                             --------------
         LAND SURFACE =         256077.36           LAND SURFACE =                  
            SOIL ZONE =        1058071.31              SOIL ZONE =            -28.34
     UNSATURATED ZONE =       -2172032.20       UNSATURATED ZONE =         -15943.22
       SATURATED ZONE =         593381.97         SATURATED ZONE =           4403.03

 OVERALL BUDGET ERROR =          14635.30           BUDGET ERROR =             15.07


  PERCENT DISCREPANCY =              0.71    PERCENT DISCREPANCY =              0.13



1
 SUMMARY VOLUMETRIC BUDGET FOR GSFLOW 
 DATE: 12 23 1990              CUMULATIVE TIME STEP:      23
 MODFLOW STRESS PERIOD      4     CURRENT TIME STEP:      84     ITERATIONS:       6

 -----------------------------------------------------------------------------------

   CUMULATIVE VOLUMES               L**3   RATES FOR THIS TIME STEP           L**3/T
   ------------------                      ------------------------

                                     IN                                         IN
                                     --                                         --
        PRECIPITATION =        2276236.55          PRECIPITATION =                  
           STREAMFLOW =                               STREAMFLOW =                  
     GW BOUNDARY FLOW =              0.08       GW BOUNDARY FLOW =              0.04


                                    OUT                                        OUT
                                    ---                                        ---
   EVAPOTRANSPIRATION =        1303943.41     EVAPOTRANSPIRATION =                  
           STREAMFLOW =         830313.93             STREAMFLOW =          11567.02
     GW BOUNDARY FLOW =           3020.28       GW BOUNDARY FLOW =             35.57

   INFLOWS - OUTFLOWS =         138959.01     INFLOWS - OUTFLOWS =         -11602.55
             --------                                   --------

 TOTAL STORAGE CHANGE =         124231.06         STORAGE CHANGE =         -11614.46
       --------------                             --------------
         LAND SURFACE =         725980.66           LAND SURFACE =                  
            SOIL ZONE =        1058214.92              SOIL ZONE =             49.85
     UNSATURATED ZONE =       -2281220.39       UNSATURATED ZONE =         -15351.17
       SATURATED ZONE =         621255.68         SATURATED ZONE =           3686.86

 OVERALL BUDGET ERROR =          14727.95           BUDGET ERROR =             11.91


  PERCENT DISCREPANCY =              0.65    PERCENT DISCREPANCY =              0.10



1
 SUMMARY VOLUMETRIC BUDGET FOR GSFLOW 
 DATE: 12 30 1990              CUMULATIVE TIME STEP:      30
 MODFLOW STRESS PERIOD      4     CURRENT TIME STEP:      91     ITERATIONS:       5

 -----------------------------------------------------------------------------------

   CUMULATIVE VOLUMES               L**3   RATES FOR THIS TIME STEP           L**3/T
   ------------------                      ------------------------

                                     IN                                         IN
                                     --                                         --
        PRECIPITATION =        2276236.55          PRECIPITATION =                  
           STREAMFLOW =                               STREAMFLOW =                  
     GW BOUNDARY FLOW =              0.77       GW BOUNDARY FLOW =              0.14


                                    OUT                                        OUT
                                    ---                                        ---
   EVAPOTRANSPIRATION =        1304696.05     EVAPOTRANSPIRATION =                  
           STREAMFLOW =         911550.82             STREAMFLOW =          11638.20
     GW BOUNDARY FLOW =           3269.39       GW BOUNDARY FLOW =             35.60

   INFLOWS - OUTFLOWS =          56721.06     INFLOWS - OUTFLOWS =         -11673.66
             --------                                   --------

 TOTAL STORAGE CHANGE =          41919.33         STORAGE CHANGE =         -11683.39
       --------------                             --------------
         LAND SURFACE =         725228.17           LAND SURFACE =                  
            SOIL ZONE =        1058763.14              SOIL ZONE =             97.22
     UNSATURATED ZONE =       -2386520.66       UNSATURATED ZONE =         -14806.49
       SATURATED ZONE =         644448.46         SATURATED ZONE =           3025.87

 OVERALL BUDGET ERROR =          14801.73           BUDGET ERROR =              9.73


  PERCENT DISCREPANCY =              0.65    PERCENT DISCREPANCY =              0.08



1
 SUMMARY VOLUMETRIC BUDGET FOR GSFLOW 
 DATE: 01 06 1991              CUMULATIVE TIME STEP:       6
 MODFLOW STRESS PERIOD      5     CURRENT TIME STEP:      98     ITERATIONS:       5

 -----------------------------------------------------------------------------------

   CUMULATIVE VOLUMES               L**3   RATES FOR THIS TIME STEP           L**3/T
   ------------------                      ------------------------

                                     IN                                         IN
                                     --                                         --
        PRECIPITATION =        2276236.55          PRECIPITATION =                  
           STREAMFLOW =                               STREAMFLOW =                  
     GW BOUNDARY FLOW =              2.09       GW BOUNDARY FLOW =              0.22


                                    OUT                                        OUT
                                    ---                                        ---
   EVAPOTRANSPIRATION =        1327964.60     EVAPOTRANSPIRATION =           2582.15
           STREAMFLOW =         993439.81             STREAMFLOW =          11737.24
     GW BOUNDARY FLOW =           3519.25       GW BOUNDARY FLOW =             35.75

   INFLOWS - OUTFLOWS =         -48685.02     INFLOWS - OUTFLOWS =         -14354.92
             --------                                   --------

 TOTAL STORAGE CHANGE =         -65957.07         STORAGE CHANGE =         -14481.94
       --------------                             --------------
         LAND SURFACE =         620283.30           LAND SURFACE =          -6112.33
            SOIL ZONE =        1138709.76              SOIL ZONE =           3504.34
     UNSATURATED ZONE =       -2487867.81       UNSATURATED ZONE =         -14237.13
       SATURATED ZONE =         662917.41         SATURATED ZONE =           2363.18

 OVERALL BUDGET ERROR =          17272.05           BUDGET ERROR =            127.02


  PERCENT DISCREPANCY =              0.74    PERCENT DISCREPANCY =              0.88



1
 SUMMARY VOLUMETRIC BUDGET FOR GSFLOW 
 DATE: 01 13 1991              CUMULATIVE TIME STEP:      13
 MODFLOW STRESS PERIOD      5     CURRENT TIME STEP:     105     ITERATIONS:       6

 -----------------------------------------------------------------------------------

   CUMULATIVE VOLUMES               L**3   RATES FOR THIS TIME STEP           L**3/T
   ------------------                      ------------------------

                                     IN                                         IN
                                     --                                         --
        PRECIPITATION =        2596386.94          PRECIPITATION =          10327.43
           STREAMFLOW =                               STREAMFLOW =                  
     GW BOUNDARY FLOW =              4.02       GW BOUNDARY FLOW =              0.31


                                    OUT                                        OUT
                                    ---                                        ---
   EVAPOTRANSPIRATION =        1387791.00     EVAPOTRANSPIRATION =          16654.80
           STREAMFLOW =        1075707.25             STREAMFLOW =          11683.06
     GW BOUNDARY FLOW =           3769.47       GW BOUNDARY FLOW =             35.73

   INFLOWS - OUTFLOWS =         129123.24     INFLOWS - OUTFLOWS =         -18045.84
             --------                                   --------

 TOTAL STORAGE CHANGE =         106829.38         STORAGE CHANGE =         -19333.38
       --------------                             --------------
         LAND SURFACE =         586364.86           LAND SURFACE =        -135127.18
            SOIL ZONE =        1429939.84              SOIL ZONE =         128530.31
     UNSATURATED ZONE =       -2585153.07       UNSATURATED ZONE =         -13705.04
       SATURATED ZONE =         675677.42         SATURATED ZONE =            968.53

 OVERALL BUDGET ERROR =          22293.86           BUDGET ERROR =           1287.53

  ***WARNING, FLUX RATES OFF > 3%

  PERCENT DISCREPANCY =              0.86    PERCENT DISCREPANCY =              4.44



1
 SUMMARY VOLUMETRIC BUDGET FOR GSFLOW 
 DATE: 01 20 1991              CUMULATIVE TIME STEP:      20
 MODFLOW STRESS PERIOD      5     CURRENT TIME STEP:     112     ITERATIONS:       5

 -----------------------------------------------------------------------------------

   CUMULATIVE VOLUMES               L**3   RATES FOR THIS TIME STEP           L**3/T
   ------------------                      ------------------------

                                     IN                                         IN
                                     --                                         --
        PRECIPITATION =        2596386.94          PRECIPITATION =                  
           STREAMFLOW =                               STREAMFLOW =                  
     GW BOUNDARY FLOW =              6.55       GW BOUNDARY FLOW =              0.40


                                    OUT                                        OUT
                                    ---                                        ---
   EVAPOTRANSPIRATION =        1455998.85     EVAPOTRANSPIRATION =           1810.20
           STREAMFLOW =        1158757.63             STREAMFLOW =          11894.54
     GW BOUNDARY FLOW =           4019.72       GW BOUNDARY FLOW =             35.75

   INFLOWS - OUTFLOWS =         -22382.70     INFLOWS - OUTFLOWS =         -13740.10
             --------                                   --------

 TOTAL STORAGE CHANGE =         -45723.21         STORAGE CHANGE =         -13748.65
       --------------                             --------------
         LAND SURFACE =         422210.59           LAND SURFACE =           -295.67
            SOIL ZONE =        1526071.12              SOIL ZONE =          -1449.77
     UNSATURATED ZONE =       -2678513.81       UNSATURATED ZONE =         -13118.55
       SATURATED ZONE =         684508.52         SATURATED ZONE =           1115.33

 OVERALL BUDGET ERROR =          23340.50           BUDGET ERROR =              8.55


  PERCENT DISCREPANCY =              0.89    PERCENT DISCREPANCY =              0.06



1
 SUMMARY VOLUMETRIC BUDGET FOR GSFLOW 
 DATE: 01 27 1991              CUMULATIVE TIME STEP:      27
 MODFLOW STRESS PERIOD      5     CURRENT TIME STEP:     119     ITERATIONS:       5

 -----------------------------------------------------------------------------------

   CUMULATIVE VOLUMES               L**3   RATES FOR THIS TIME STEP           L**3/T
   ------------------                      ------------------------

                                     IN                                         IN
                                     --                                         --
        PRECIPITATION =        2596386.94          PRECIPITATION =                  
           STREAMFLOW =                               STREAMFLOW =                  
     GW BOUNDARY FLOW =              9.66       GW BOUNDARY FLOW =              0.48


                                    OUT                                        OUT
                                    ---                                        ---
   EVAPOTRANSPIRATION =        1476978.40     EVAPOTRANSPIRATION =           1215.88
           STREAMFLOW =        1241992.06             STREAMFLOW =          11916.18
     GW BOUNDARY FLOW =           4269.93       GW BOUNDARY FLOW =             35.74

   INFLOWS - OUTFLOWS =        -126843.79     INFLOWS - OUTFLOWS =         -13167.32
             --------                                   --------

 TOTAL STORAGE CHANGE =        -150442.67         STORAGE CHANGE =         -13167.06
       --------------                             --------------
         LAND SURFACE =         394226.40           LAND SURFACE =           -109.80
            SOIL ZONE =        1533966.94              SOIL ZONE =          -1009.61
     UNSATURATED ZONE =       -2768379.90       UNSATURATED ZONE =         -12616.23
       SATURATED ZONE =         689743.45         SATURATED ZONE =            568.57

 OVERALL BUDGET ERROR =          23598.88           BUDGET ERROR =             -0.26


  PERCENT DISCREPANCY =              0.86    PERCENT DISCREPANCY =             -0.00



1
 SUMMARY VOLUMETRIC BUDGET FOR GSFLOW 
 DATE: 02 03 1991              CUMULATIVE TIME STEP:       3
 MODFLOW STRESS PERIOD      6     CURRENT TIME STEP:     126     ITERATIONS:       6

 -----------------------------------------------------------------------------------

   CUMULATIVE VOLUMES               L**3   RATES FOR THIS TIME STEP           L**3/T
   ------------------                      ------------------------

                                     IN                                         IN
                                     --                                         --
        PRECIPITATION =        3228422.31          PRECIPITATION =          30459.53
           STREAMFLOW =                               STREAMFLOW =                  
     GW BOUNDARY FLOW =             13.31       GW BOUNDARY FLOW =              0.55


                                    OUT                                        OUT
                                    ---                                        ---
   EVAPOTRANSPIRATION =        1575325.83     EVAPOTRANSPIRATION =          20004.18
           STREAMFLOW =        1326728.96             STREAMFLOW =          12211.85
     GW BOUNDARY FLOW =           4520.09       GW BOUNDARY FLOW =             35.74

   INFLOWS - OUTFLOWS =         321860.74     INFLOWS - OUTFLOWS =          -1791.68
             --------                                   --------

 TOTAL STORAGE CHANGE =         291186.66         STORAGE CHANGE =          -2067.81
       --------------                             --------------
         LAND SURFACE =         184727.70           LAND SURFACE =         -28670.24
            SOIL ZONE =        2271769.09              SOIL ZONE =          38964.78
     UNSATURATED ZONE =       -2855107.15       UNSATURATED ZONE =         -12238.58
       SATURATED ZONE =         689796.51         SATURATED ZONE =           -123.78

 OVERALL BUDGET ERROR =          30674.08           BUDGET ERROR =            276.12


  PERCENT DISCREPANCY =              0.95    PERCENT DISCREPANCY =              0.85



1
 SUMMARY VOLUMETRIC BUDGET FOR GSFLOW 
 DATE: 02 10 1991              CUMULATIVE TIME STEP:      10
 MODFLOW STRESS PERIOD      6     CURRENT TIME STEP:     133     ITERATIONS:       5

 -----------------------------------------------------------------------------------

   CUMULATIVE VOLUMES               L**3   RATES FOR THIS TIME STEP           L**3/T
   ------------------                      ------------------------

                                     IN                                         IN
                                     --                                         --
        PRECIPITATION =        3510173.01          PRECIPITATION =                  
           STREAMFLOW =                               STREAMFLOW =                  
     GW BOUNDARY FLOW =             17.49       GW BOUNDARY FLOW =              0.63


                                    OUT                                        OUT
                                    ---                                        ---
   EVAPOTRANSPIRATION =        1740801.74     EVAPOTRANSPIRATION =          25306.64
           STREAMFLOW =        1412500.62             STREAMFLOW =          12104.92
     GW BOUNDARY FLOW =           4770.17       GW BOUNDARY FLOW =             35.72

   INFLOWS - OUTFLOWS =         352117.98     INFLOWS - OUTFLOWS =         -37446.64
             --------                                   --------

 TOTAL STORAGE CHANGE =         318443.08         STORAGE CHANGE =         -37400.57
       --------------                             --------------
         LAND SURFACE =          90050.80           LAND SURFACE =         -12330.62
            SOIL ZONE =        2479159.92              SOIL ZONE =         -12706.72
     UNSATURATED ZONE =       -2938298.08       UNSATURATED ZONE =         -11738.15
       SATURATED ZONE =         687529.85         SATURATED ZONE =           -625.09

 OVERALL BUDGET ERROR =          33674.90           BUDGET ERROR =            -46.08


  PERCENT DISCREPANCY =              0.96    PERCENT DISCREPANCY =             -0.12



1
 SUMMARY VOLUMETRIC BUDGET FOR GSFLOW 
 DATE: 02 17 1991              CUMULATIVE TIME STEP:      17
 MODFLOW STRESS PERIOD      6     CURRENT TIME STEP:     140     ITERATIONS:       5

 -----------------------------------------------------------------------------------

   CUMULATIVE VOLUMES               L**3   RATES FOR THIS TIME STEP           L**3/T
   ------------------                      ------------------------

                                     IN                                         IN
                                     --                                         --
        PRECIPITATION =        3510173.01          PRECIPITATION =                  
           STREAMFLOW =                               STREAMFLOW =                  
     GW BOUNDARY FLOW =             22.16       GW BOUNDARY FLOW =              0.70


                                    OUT                                        OUT
                                    ---                                        ---
   EVAPOTRANSPIRATION =        1980905.99     EVAPOTRANSPIRATION =          23092.73
           STREAMFLOW =        1496765.19             STREAMFLOW =          12044.57
     GW BOUNDARY FLOW =           5020.09       GW BOUNDARY FLOW =             35.68

   INFLOWS - OUTFLOWS =          27503.91     INFLOWS - OUTFLOWS =         -35172.28
             --------                                   --------

 TOTAL STORAGE CHANGE =          -5550.23         STORAGE CHANGE =         -35095.99
       --------------                             --------------
         LAND SURFACE =          18163.74           LAND SURFACE =          -1654.25
            SOIL ZONE =        2313234.58              SOIL ZONE =         -21318.30
     UNSATURATED ZONE =       -3018004.20       UNSATURATED ZONE =         -11037.18
       SATURATED ZONE =         681054.97         SATURATED ZONE =          -1086.27

 OVERALL BUDGET ERROR =          33054.14           BUDGET ERROR =            -76.29


  PERCENT DISCREPANCY =              0.94    PERCENT DISCREPANCY =             -0.22



1
 SUMMARY VOLUMETRIC BUDGET FOR GSFLOW 
 DATE: 02 24 1991              CUMULATIVE TIME STEP:      24
 MODFLOW STRESS PERIOD      6     CURRENT TIME STEP:     147     ITERATIONS:       5

 -----------------------------------------------------------------------------------

   CUMULATIVE VOLUMES               L**3   RATES FOR THIS TIME STEP           L**3/T
   ------------------                      ------------------------

                                     IN                                         IN
                                     --                                         --
        PRECIPITATION =        3510173.01          PRECIPITATION =                  
           STREAMFLOW =                               STREAMFLOW =                  
     GW BOUNDARY FLOW =             27.31       GW BOUNDARY FLOW =              0.76


                                    OUT                                        OUT
                                    ---                                        ---
   EVAPOTRANSPIRATION =        2196068.02     EVAPOTRANSPIRATION =          21917.01
           STREAMFLOW =        1580735.93             STREAMFLOW =          11995.50
     GW BOUNDARY FLOW =           5269.14       GW BOUNDARY FLOW =             35.51

   INFLOWS - OUTFLOWS =        -271872.77     INFLOWS - OUTFLOWS =         -33947.25
             --------                                   --------

 TOTAL STORAGE CHANGE =        -304217.49         STORAGE CHANGE =         -33872.85
       --------------                             --------------
         LAND SURFACE =           6686.42           LAND SURFACE =           -239.07
            SOIL ZONE =        2111437.74              SOIL ZONE =         -21419.53
     UNSATURATED ZONE =       -3093609.27       UNSATURATED ZONE =         -10628.40
       SATURATED ZONE =         671266.85         SATURATED ZONE =          -1585.87

 OVERALL BUDGET ERROR =          32344.72           BUDGET ERROR =            -74.41


  PERCENT DISCREPANCY =              0.85    PERCENT DISCREPANCY =             -0.22



1
 SUMMARY VOLUMETRIC BUDGET FOR GSFLOW 
 DATE: 03 03 1991              CUMULATIVE TIME STEP:       3
 MODFLOW STRESS PERIOD      7     CURRENT TIME STEP:     154     ITERATIONS:       5

 -----------------------------------------------------------------------------------

   CUMULATIVE VOLUMES               L**3   RATES FOR THIS TIME STEP           L**3/T
   ------------------                      ------------------------

                                     IN                                         IN
                                     --                                         --
        PRECIPITATION =        6220189.63          PRECIPITATION =        1243187.24
           STREAMFLOW =                               STREAMFLOW =                  
     GW BOUNDARY FLOW =             32.91       GW BOUNDARY FLOW =              0.83


                                    OUT                                        OUT
                                    ---                                        ---
   EVAPOTRANSPIRATION =        2348286.58     EVAPOTRANSPIRATION =           8000.78
           STREAMFLOW =        1664442.97             STREAMFLOW =          12197.50
     GW BOUNDARY FLOW =           5516.92       GW BOUNDARY FLOW =             35.33

   INFLOWS - OUTFLOWS =        2201976.07     INFLOWS - OUTFLOWS =        1222954.46
             --------                                   --------

 TOTAL STORAGE CHANGE =        2163394.25         STORAGE CHANGE =        1216249.43
       --------------                             --------------
         LAND SURFACE =        2505904.36           LAND SURFACE =        1046748.89
            SOIL ZONE =        2166927.30              SOIL ZONE =         182149.51
     UNSATURATED ZONE =       -3166409.89       UNSATURATED ZONE =         -10253.03
       SATURATED ZONE =         656971.62         SATURATED ZONE =          -2395.95

 OVERALL BUDGET ERROR =          38581.83           BUDGET ERROR =           6705.03


  PERCENT DISCREPANCY =              0.62    PERCENT DISCREPANCY =              0.54



1
 SUMMARY VOLUMETRIC BUDGET FOR GSFLOW 
 DATE: 03 10 1991              CUMULATIVE TIME STEP:      10
 MODFLOW STRESS PERIOD      7     CURRENT TIME STEP:     161     ITERATIONS:       5

 -----------------------------------------------------------------------------------

   CUMULATIVE VOLUMES               L**3   RATES FOR THIS TIME STEP           L**3/T
   ------------------                      ------------------------

                                     IN                                         IN
                                     --                                         --
        PRECIPITATION =        8746030.42          PRECIPITATION =          32888.55
           STREAMFLOW =                               STREAMFLOW =                  
     GW BOUNDARY FLOW =             38.95       GW BOUNDARY FLOW =              0.89


                                    OUT                                        OUT
                                    ---                                        ---
   EVAPOTRANSPIRATION =        2407404.98     EVAPOTRANSPIRATION =           8408.65
           STREAMFLOW =        1764494.32             STREAMFLOW =          12906.69
     GW BOUNDARY FLOW =           5764.23       GW BOUNDARY FLOW =             35.24

   INFLOWS - OUTFLOWS =        4568405.85     INFLOWS - OUTFLOWS =          11538.85
             --------                                   --------

 TOTAL STORAGE CHANGE =        4498795.79         STORAGE CHANGE =          10717.79
       --------------                             --------------
         LAND SURFACE =        3082070.49           LAND SURFACE =            535.10
            SOIL ZONE =        3978268.74              SOIL ZONE =          16867.11
     UNSATURATED ZONE =       -3205842.47       UNSATURATED ZONE =          -4634.67
       SATURATED ZONE =         644297.97         SATURATED ZONE =          -2049.78

 OVERALL BUDGET ERROR =          69610.06           BUDGET ERROR =            821.06


  PERCENT DISCREPANCY =              0.80    PERCENT DISCREPANCY =              2.53



1
 SUMMARY VOLUMETRIC BUDGET FOR GSFLOW 
 DATE: 03 17 1991              CUMULATIVE TIME STEP:      17
 MODFLOW STRESS PERIOD      7     CURRENT TIME STEP:     168     ITERATIONS:       5

 -----------------------------------------------------------------------------------

   CUMULATIVE VOLUMES               L**3   RATES FOR THIS TIME STEP           L**3/T
   ------------------                      ------------------------

                                     IN                                         IN
                                     --                                         --
        PRECIPITATION =        9897129.71          PRECIPITATION =         157865.04
           STREAMFLOW =                               STREAMFLOW =                  
     GW BOUNDARY FLOW =             45.41       GW BOUNDARY FLOW =              0.95


                                    OUT                                        OUT
                                    ---                                        ---
   EVAPOTRANSPIRATION =        2433081.74     EVAPOTRANSPIRATION =           7593.17
           STREAMFLOW =        1852945.38             STREAMFLOW =          12500.10
     GW BOUNDARY FLOW =           6010.30       GW BOUNDARY FLOW =             35.09

   INFLOWS - OUTFLOWS =        5605137.71     INFLOWS - OUTFLOWS =         137737.64
             --------                                   --------

 TOTAL STORAGE CHANGE =        5535718.01         STORAGE CHANGE =         137782.57
       --------------                             --------------
         LAND SURFACE =        4232943.09           LAND SURFACE =         157846.09
            SOIL ZONE =        3913739.79              SOIL ZONE =         -12774.04
     UNSATURATED ZONE =       -3238695.85       UNSATURATED ZONE =          -4712.66
       SATURATED ZONE =         627729.72         SATURATED ZONE =          -2576.84

 OVERALL BUDGET ERROR =          69419.70           BUDGET ERROR =            -44.93


  PERCENT DISCREPANCY =              0.70    PERCENT DISCREPANCY =             -0.03



1
 SUMMARY VOLUMETRIC BUDGET FOR GSFLOW 
 DATE: 03 24 1991              CUMULATIVE TIME STEP:      24
 MODFLOW STRESS PERIOD      7     CURRENT TIME STEP:     175     ITERATIONS:       5

 -----------------------------------------------------------------------------------

   CUMULATIVE VOLUMES               L**3   RATES FOR THIS TIME STEP           L**3/T
   ------------------                      ------------------------

                                     IN                                         IN
                                     --                                         --
        PRECIPITATION =        1.1673D+07          PRECIPITATION =        1230031.83
           STREAMFLOW =                               STREAMFLOW =                  
     GW BOUNDARY FLOW =             52.29       GW BOUNDARY FLOW =              1.01


                                    OUT                                        OUT
                                    ---                                        ---
   EVAPOTRANSPIRATION =        2468663.04     EVAPOTRANSPIRATION =           4146.99
           STREAMFLOW =        1939942.80             STREAMFLOW =          12386.79
     GW BOUNDARY FLOW =           6255.32       GW BOUNDARY FLOW =             34.94

   INFLOWS - OUTFLOWS =        7258302.62     INFLOWS - OUTFLOWS =        1213464.12
             --------                                   --------

 TOTAL STORAGE CHANGE =        7188624.56         STORAGE CHANGE =        1213479.06
       --------------                             --------------
         LAND SURFACE =        6001644.06           LAND SURFACE =        1230031.83
            SOIL ZONE =        3851983.14              SOIL ZONE =          -8567.42
     UNSATURATED ZONE =       -3273065.21       UNSATURATED ZONE =          -4997.34
       SATURATED ZONE =         608061.10         SATURATED ZONE =          -2988.05

 OVERALL BUDGET ERROR =          69678.06           BUDGET ERROR =            -14.94


  PERCENT DISCREPANCY =              0.60    PERCENT DISCREPANCY =             -0.00



1
 SUMMARY VOLUMETRIC BUDGET FOR GSFLOW 
 DATE: 03 31 1991              CUMULATIVE TIME STEP:      31
 MODFLOW STRESS PERIOD      7     CURRENT TIME STEP:     182     ITERATIONS:       5

 -----------------------------------------------------------------------------------

   CUMULATIVE VOLUMES               L**3   RATES FOR THIS TIME STEP           L**3/T
   ------------------                      ------------------------

                                     IN                                         IN
                                     --                                         --
        PRECIPITATION =        1.2495D+07          PRECIPITATION =                  
           STREAMFLOW =                               STREAMFLOW =                  
     GW BOUNDARY FLOW =             59.56       GW BOUNDARY FLOW =              1.06


                                    OUT                                        OUT
                                    ---                                        ---
   EVAPOTRANSPIRATION =        2576952.35     EVAPOTRANSPIRATION =          44704.55
           STREAMFLOW =        2026541.13             STREAMFLOW =          12372.59
     GW BOUNDARY FLOW =           6499.38       GW BOUNDARY FLOW =             34.81

   INFLOWS - OUTFLOWS =        7885391.98     INFLOWS - OUTFLOWS =         -57110.89
             --------                                   --------

 TOTAL STORAGE CHANGE =        7811544.66         STORAGE CHANGE =         -59796.16
       --------------                             --------------
         LAND SURFACE =        6627859.43           LAND SURFACE =        -109529.99
            SOIL ZONE =        3905091.44              SOIL ZONE =          57122.18
     UNSATURATED ZONE =       -3306721.82       UNSATURATED ZONE =          -3975.07
       SATURATED ZONE =         585313.95         SATURATED ZONE =          -3413.31

 OVERALL BUDGET ERROR =          73847.31           BUDGET ERROR =           2685.27

  ***WARNING, FLUX RATES OFF > 3%

  PERCENT DISCREPANCY =              0.59    PERCENT DISCREPANCY =              4.59



1
 SUMMARY VOLUMETRIC BUDGET FOR GSFLOW 
 DATE: 04 07 1991              CUMULATIVE TIME STEP:       7
 MODFLOW STRESS PERIOD      8     CURRENT TIME STEP:     189     ITERATIONS:       6

 -----------------------------------------------------------------------------------

   CUMULATIVE VOLUMES               L**3   RATES FOR THIS TIME STEP           L**3/T
   ------------------                      ------------------------

                                     IN                                         IN
                                     --                                         --
        PRECIPITATION =        1.3018D+07          PRECIPITATION =                  
           STREAMFLOW =                               STREAMFLOW =                  
     GW BOUNDARY FLOW =             67.21       GW BOUNDARY FLOW =              1.12


                                    OUT                                        OUT
                                    ---                                        ---
   EVAPOTRANSPIRATION =        2864264.88     EVAPOTRANSPIRATION =          13551.18
           STREAMFLOW =        2119039.94             STREAMFLOW =          13884.06
     GW BOUNDARY FLOW =           6742.83       GW BOUNDARY FLOW =             34.76

   INFLOWS - OUTFLOWS =        8027756.30     INFLOWS - OUTFLOWS =         -27468.89
             --------                                   --------

 TOTAL STORAGE CHANGE =        7923030.43         STORAGE CHANGE =         -28722.50
       --------------                             --------------
         LAND SURFACE =        5127084.68           LAND SURFACE =         -59307.30
            SOIL ZONE =        5524085.95              SOIL ZONE =          24514.55
     UNSATURATED ZONE =       -3291292.54       UNSATURATED ZONE =           8877.42
       SATURATED ZONE =         563150.40         SATURATED ZONE =          -2807.22

 OVERALL BUDGET ERROR =         104725.87           BUDGET ERROR =           1253.61

  ***WARNING, FLUX RATES OFF > 3%

  PERCENT DISCREPANCY =              0.81    PERCENT DISCREPANCY =              4.46



1
 SUMMARY VOLUMETRIC BUDGET FOR GSFLOW 
 DATE: 04 14 1991              CUMULATIVE TIME STEP:      14
 MODFLOW STRESS PERIOD      8     CURRENT TIME STEP:     196     ITERATIONS:       5

 -----------------------------------------------------------------------------------

   CUMULATIVE VOLUMES               L**3   RATES FOR THIS TIME STEP           L**3/T
   ------------------                      ------------------------

                                     IN                                         IN
                                     --                                         --
        PRECIPITATION =        1.3018D+07          PRECIPITATION =                  
           STREAMFLOW =                               STREAMFLOW =                  
     GW BOUNDARY FLOW =             75.23       GW BOUNDARY FLOW =              1.17


                                    OUT                                        OUT
                                    ---                                        ---
   EVAPOTRANSPIRATION =        3034098.79     EVAPOTRANSPIRATION =          38933.92
           STREAMFLOW =        2214571.14             STREAMFLOW =          13602.29
     GW BOUNDARY FLOW =           6985.70       GW BOUNDARY FLOW =             34.65

   INFLOWS - OUTFLOWS =        7762156.33     INFLOWS - OUTFLOWS =         -52569.69
             --------                                   --------

 TOTAL STORAGE CHANGE =        7646270.15         STORAGE CHANGE =         -55539.13
       --------------                             --------------
         LAND SURFACE =        4519797.60           LAND SURFACE =        -171937.20
            SOIL ZONE =        5797070.25              SOIL ZONE =         106941.50
     UNSATURATED ZONE =       -3214712.09       UNSATURATED ZONE =          12196.65
       SATURATED ZONE =         544112.15         SATURATED ZONE =          -2740.12

 OVERALL BUDGET ERROR =         115886.18           BUDGET ERROR =           2969.43

  ***WARNING, FLUX RATES OFF > 3%

  PERCENT DISCREPANCY =              0.89    PERCENT DISCREPANCY =              5.49



1
 SUMMARY VOLUMETRIC BUDGET FOR GSFLOW 
 DATE: 04 21 1991              CUMULATIVE TIME STEP:      21
 MODFLOW STRESS PERIOD      8     CURRENT TIME STEP:     203     ITERATIONS:       6

 -----------------------------------------------------------------------------------

   CUMULATIVE VOLUMES               L**3   RATES FOR THIS TIME STEP           L**3/T
   ------------------                      ------------------------

                                     IN                                         IN
                                     --                                         --
        PRECIPITATION =        1.3034D+07          PRECIPITATION =                  
           STREAMFLOW =                               STREAMFLOW =                  
     GW BOUNDARY FLOW =             83.60       GW BOUNDARY FLOW =              1.22


                                    OUT                                        OUT
                                    ---                                        ---
   EVAPOTRANSPIRATION =        3265775.75     EVAPOTRANSPIRATION =          43439.76
           STREAMFLOW =        2311561.43             STREAMFLOW =          14272.44
     GW BOUNDARY FLOW =           7227.91       GW BOUNDARY FLOW =             34.57

   INFLOWS - OUTFLOWS =        7449580.60     INFLOWS - OUTFLOWS =         -57745.55
             --------                                   --------

 TOTAL STORAGE CHANGE =        7317466.32         STORAGE CHANGE =         -60429.64
       --------------                             --------------
         LAND SURFACE =        3417717.42           LAND SURFACE =        -214591.82
            SOIL ZONE =        6486127.21              SOIL ZONE =         139129.87
     UNSATURATED ZONE =       -3113187.37       UNSATURATED ZONE =          17414.74
       SATURATED ZONE =         526806.47         SATURATED ZONE =          -2382.49

 OVERALL BUDGET ERROR =         132114.29           BUDGET ERROR =           2684.09

  ***WARNING, FLUX RATES OFF > 3%

  PERCENT DISCREPANCY =              1.02    PERCENT DISCREPANCY =              4.54



1
 SUMMARY VOLUMETRIC BUDGET FOR GSFLOW 
 DATE: 04 28 1991              CUMULATIVE TIME STEP:      28
 MODFLOW STRESS PERIOD      8     CURRENT TIME STEP:     210     ITERATIONS:       7

 -----------------------------------------------------------------------------------

   CUMULATIVE VOLUMES               L**3   RATES FOR THIS TIME STEP           L**3/T
   ------------------                      ------------------------

                                     IN                                         IN
                                     --                                         --
        PRECIPITATION =        1.3303D+07          PRECIPITATION =                  
           STREAMFLOW =                               STREAMFLOW =                  
     GW BOUNDARY FLOW =             92.30       GW BOUNDARY FLOW =              1.26


                                    OUT                                        OUT
                                    ---                                        ---
   EVAPOTRANSPIRATION =        3512630.89     EVAPOTRANSPIRATION =          55257.36
           STREAMFLOW =        2410765.09             STREAMFLOW =          13984.01
     GW BOUNDARY FLOW =           7469.40       GW BOUNDARY FLOW =             34.45

   INFLOWS - OUTFLOWS =        7372657.42     INFLOWS - OUTFLOWS =         -69274.56
             --------                                   --------

 TOTAL STORAGE CHANGE =        7229891.69         STORAGE CHANGE =         -70317.49
       --------------                             --------------
         LAND SURFACE =        2828492.52           LAND SURFACE =        -115203.82
            SOIL ZONE =        6863776.00              SOIL ZONE =          26532.36
     UNSATURATED ZONE =       -2976076.47       UNSATURATED ZONE =          20108.00
       SATURATED ZONE =         513696.66         SATURATED ZONE =          -1754.09

 OVERALL BUDGET ERROR =         142765.73           BUDGET ERROR =           1042.94


  PERCENT DISCREPANCY =              1.08    PERCENT DISCREPANCY =              1.49



1
 SUMMARY VOLUMETRIC BUDGET FOR GSFLOW 
 DATE: 05 05 1991              CUMULATIVE TIME STEP:       5
 MODFLOW STRESS PERIOD      9     CURRENT TIME STEP:     217     ITERATIONS:       7

 -----------------------------------------------------------------------------------

   CUMULATIVE VOLUMES               L**3   RATES FOR THIS TIME STEP           L**3/T
   ------------------                      ------------------------

                                     IN                                         IN
                                     --                                         --
        PRECIPITATION =        1.3510D+07          PRECIPITATION =                  
           STREAMFLOW =                               STREAMFLOW =                  
     GW BOUNDARY FLOW =            101.32       GW BOUNDARY FLOW =              1.31


                                    OUT                                        OUT
                                    ---                                        ---
   EVAPOTRANSPIRATION =        3861564.84     EVAPOTRANSPIRATION =          84781.36
           STREAMFLOW =        2508863.46             STREAMFLOW =          14027.58
     GW BOUNDARY FLOW =           7710.00       GW BOUNDARY FLOW =             34.30

   INFLOWS - OUTFLOWS =        7131671.16     INFLOWS - OUTFLOWS =         -98841.93
             --------                                   --------

 TOTAL STORAGE CHANGE =        6981476.51         STORAGE CHANGE =         -99968.70
       --------------                             --------------
         LAND SURFACE =        2164321.68           LAND SURFACE =        -169194.91
            SOIL ZONE =        7142701.95              SOIL ZONE =          48430.05
     UNSATURATED ZONE =       -2829199.44       UNSATURATED ZONE =          22080.96
       SATURATED ZONE =         503648.94         SATURATED ZONE =          -1284.85

 OVERALL BUDGET ERROR =         150194.64           BUDGET ERROR =           1126.77


  PERCENT DISCREPANCY =              1.12    PERCENT DISCREPANCY =              1.13



1
 SUMMARY VOLUMETRIC BUDGET FOR GSFLOW 
 DATE: 05 12 1991              CUMULATIVE TIME STEP:      12
 MODFLOW STRESS PERIOD      9     CURRENT TIME STEP:     224     ITERATIONS:       7

 -----------------------------------------------------------------------------------

   CUMULATIVE VOLUMES               L**3   RATES FOR THIS TIME STEP           L**3/T
   ------------------                      ------------------------

                                     IN                                         IN
                                     --                                         --
        PRECIPITATION =        1.4029D+07          PRECIPITATION =                  
           STREAMFLOW =                               STREAMFLOW =                  
     GW BOUNDARY FLOW =            110.64       GW BOUNDARY FLOW =              1.35


                                    OUT                                        OUT
                                    ---                                        ---
   EVAPOTRANSPIRATION =        4231356.06     EVAPOTRANSPIRATION =          62577.98
           STREAMFLOW =        2609428.53             STREAMFLOW =          14431.47
     GW BOUNDARY FLOW =           7949.39       GW BOUNDARY FLOW =             34.12

   INFLOWS - OUTFLOWS =        7180598.82     INFLOWS - OUTFLOWS =         -77042.22
             --------                                   --------

 TOTAL STORAGE CHANGE =        7022103.87         STORAGE CHANGE =         -78296.59
       --------------                             --------------
         LAND SURFACE =        1719829.12           LAND SURFACE =        -195667.44
            SOIL ZONE =        7475638.92              SOIL ZONE =          95182.53
     UNSATURATED ZONE =       -2671695.07       UNSATURATED ZONE =          22883.37
       SATURATED ZONE =         498327.08         SATURATED ZONE =           -695.11

 OVERALL BUDGET ERROR =         158494.95           BUDGET ERROR =           1254.37


  PERCENT DISCREPANCY =              1.14    PERCENT DISCREPANCY =              1.61



1
 SUMMARY VOLUMETRIC BUDGET FOR GSFLOW 
 DATE: 05 19 1991              CUMULATIVE TIME STEP:      19
 MODFLOW STRESS PERIOD      9     CURRENT TIME STEP:     231     ITERATIONS:       6

 -----------------------------------------------------------------------------------

   CUMULATIVE VOLUMES               L**3   RATES FOR THIS TIME STEP           L**3/T
   ------------------                      ------------------------

                                     IN                                         IN
                                     --                                         --
        PRECIPITATION =        1.4365D+07          PRECIPITATION =                  
           STREAMFLOW =                               STREAMFLOW =                  
     GW BOUNDARY FLOW =            118.87       GW BOUNDARY FLOW =              0.87


                                    OUT                                        OUT
                                    ---                                        ---
   EVAPOTRANSPIRATION =        4631298.72     EVAPOTRANSPIRATION =          17977.42
           STREAMFLOW =        2711015.16             STREAMFLOW =          14504.14
     GW BOUNDARY FLOW =           8187.56       GW BOUNDARY FLOW =             33.95

   INFLOWS - OUTFLOWS =        7014995.74     INFLOWS - OUTFLOWS =         -32514.63
             --------                                   --------

 TOTAL STORAGE CHANGE =        6851709.56         STORAGE CHANGE =         -32540.63
       --------------                             --------------
         LAND SURFACE =        1168636.63           LAND SURFACE =         -21196.61
            SOIL ZONE =        7696076.24              SOIL ZONE =         -33593.44
     UNSATURATED ZONE =       -2509431.26       UNSATURATED ZONE =          22057.52
       SATURATED ZONE =         496423.69         SATURATED ZONE =            191.84

 OVERALL BUDGET ERROR =         163286.18           BUDGET ERROR =             26.00


  PERCENT DISCREPANCY =              1.14    PERCENT DISCREPANCY =              0.08



1
 SUMMARY VOLUMETRIC BUDGET FOR GSFLOW 
 DATE: 05 26 1991              CUMULATIVE TIME STEP:      26
 MODFLOW STRESS PERIOD      9     CURRENT TIME STEP:     238     ITERATIONS:       6

 -----------------------------------------------------------------------------------

   CUMULATIVE VOLUMES               L**3   RATES FOR THIS TIME STEP           L**3/T
   ------------------                      ------------------------

                                     IN                                         IN
                                     --                                         --
        PRECIPITATION =        1.4426D+07          PRECIPITATION =                  
           STREAMFLOW =                               STREAMFLOW =                  
     GW BOUNDARY FLOW =            122.46       GW BOUNDARY FLOW =              0.32


                                    OUT                                        OUT
                                    ---                                        ---
   EVAPOTRANSPIRATION =        5278365.79     EVAPOTRANSPIRATION =          71058.37
           STREAMFLOW =        2812986.78             STREAMFLOW =          14143.35
     GW BOUNDARY FLOW =           8424.57       GW BOUNDARY FLOW =             33.78

   INFLOWS - OUTFLOWS =        6326842.93     INFLOWS - OUTFLOWS =         -85235.18
             --------                                   --------

 TOTAL STORAGE CHANGE =        6163304.15         STORAGE CHANGE =         -85209.72
       --------------                             --------------
         LAND SURFACE =         620424.11           LAND SURFACE =         -40812.89
            SOIL ZONE =        7403995.05              SOIL ZONE =         -64457.92
     UNSATURATED ZONE =       -2360415.72       UNSATURATED ZONE =          19561.34
       SATURATED ZONE =         499296.02         SATURATED ZONE =            499.69

 OVERALL BUDGET ERROR =         163538.79           BUDGET ERROR =            -25.45


  PERCENT DISCREPANCY =              1.14    PERCENT DISCREPANCY =             -0.03



1
 SUMMARY VOLUMETRIC BUDGET FOR GSFLOW 
 DATE: 06 02 1991              CUMULATIVE TIME STEP:       2
 MODFLOW STRESS PERIOD     10     CURRENT TIME STEP:     245     ITERATIONS:       6

 -----------------------------------------------------------------------------------

   CUMULATIVE VOLUMES               L**3   RATES FOR THIS TIME STEP           L**3/T
   ------------------                      ------------------------

                                     IN                                         IN
                                     --                                         --
        PRECIPITATION =        1.4671D+07          PRECIPITATION =                  
           STREAMFLOW =                               STREAMFLOW =                  
     GW BOUNDARY FLOW =            123.35       GW BOUNDARY FLOW =        2.7667D-03


                                    OUT                                        OUT
                                    ---                                        ---
   EVAPOTRANSPIRATION =        5823058.40     EVAPOTRANSPIRATION =         119336.89
           STREAMFLOW =        2912113.53             STREAMFLOW =          13949.52
     GW BOUNDARY FLOW =           8660.39       GW BOUNDARY FLOW =             33.63

   INFLOWS - OUTFLOWS =        5927265.83     INFLOWS - OUTFLOWS =        -133320.04
             --------                                   --------

 TOTAL STORAGE CHANGE =        5763650.74         STORAGE CHANGE =        -132318.00
       --------------                             --------------
         LAND SURFACE =         358942.21           LAND SURFACE =         -46420.51
            SOIL ZONE =        7137785.09              SOIL ZONE =        -103157.54
     UNSATURATED ZONE =       -2236548.77       UNSATURATED ZONE =          16822.95
       SATURATED ZONE =         503467.07         SATURATED ZONE =            437.04

 OVERALL BUDGET ERROR =         163615.10           BUDGET ERROR =          -1002.04


  PERCENT DISCREPANCY =              1.12    PERCENT DISCREPANCY =             -0.75



1
 SUMMARY VOLUMETRIC BUDGET FOR GSFLOW 
 DATE: 06 09 1991              CUMULATIVE TIME STEP:       9
 MODFLOW STRESS PERIOD     10     CURRENT TIME STEP:     252     ITERATIONS:       6

 -----------------------------------------------------------------------------------

   CUMULATIVE VOLUMES               L**3   RATES FOR THIS TIME STEP           L**3/T
   ------------------                      ------------------------

                                     IN                                         IN
                                     --                                         --
        PRECIPITATION =        1.4671D+07          PRECIPITATION =                  
           STREAMFLOW =                               STREAMFLOW =                  
     GW BOUNDARY FLOW =            123.35       GW BOUNDARY FLOW =                  


                                    OUT                                        OUT
                                    ---                                        ---
   EVAPOTRANSPIRATION =        6539075.35     EVAPOTRANSPIRATION =         166449.82
           STREAMFLOW =        3008700.53             STREAMFLOW =          13540.97
     GW BOUNDARY FLOW =           8896.27       GW BOUNDARY FLOW =             33.74

   INFLOWS - OUTFLOWS =        5114426.00     INFLOWS - OUTFLOWS =        -180024.53
             --------                                   --------

 TOTAL STORAGE CHANGE =        4957585.38         STORAGE CHANGE =        -178457.78
       --------------                             --------------
         LAND SURFACE =         151647.51           LAND SURFACE =         -33724.69
            SOIL ZONE =        6441420.92              SOIL ZONE =        -155770.78
     UNSATURATED ZONE =       -2140270.35       UNSATURATED ZONE =          11181.05
       SATURATED ZONE =         504781.71         SATURATED ZONE =           -143.42

 OVERALL BUDGET ERROR =         156840.63           BUDGET ERROR =          -1566.76


  PERCENT DISCREPANCY =              1.07    PERCENT DISCREPANCY =             -0.87



1
 SUMMARY VOLUMETRIC BUDGET FOR GSFLOW 
 DATE: 06 16 1991              CUMULATIVE TIME STEP:      16
 MODFLOW STRESS PERIOD     10     CURRENT TIME STEP:     259     ITERATIONS:       6

 -----------------------------------------------------------------------------------

   CUMULATIVE VOLUMES               L**3   RATES FOR THIS TIME STEP           L**3/T
   ------------------                      ------------------------

                                     IN                                         IN
                                     --                                         --
        PRECIPITATION =        1.4671D+07          PRECIPITATION =                  
           STREAMFLOW =                               STREAMFLOW =                  
     GW BOUNDARY FLOW =            123.35       GW BOUNDARY FLOW =                  


                                    OUT                                        OUT
                                    ---                                        ---
   EVAPOTRANSPIRATION =        7499684.83     EVAPOTRANSPIRATION =         109201.96
           STREAMFLOW =        3101632.65             STREAMFLOW =          13071.52
     GW BOUNDARY FLOW =           9132.51       GW BOUNDARY FLOW =             33.74

   INFLOWS - OUTFLOWS =        4060648.16     INFLOWS - OUTFLOWS =        -122307.22
             --------                                   --------

 TOTAL STORAGE CHANGE =        3912607.67         STORAGE CHANGE =        -121486.28
       --------------                             --------------
         LAND SURFACE =          42141.08           LAND SURFACE =          -7293.27
            SOIL ZONE =        5470584.92              SOIL ZONE =        -115832.55
     UNSATURATED ZONE =       -2101320.87       UNSATURATED ZONE =           2428.50
       SATURATED ZONE =         501196.50         SATURATED ZONE =           -789.03

 OVERALL BUDGET ERROR =         148040.49           BUDGET ERROR =           -820.94


  PERCENT DISCREPANCY =              1.01    PERCENT DISCREPANCY =             -0.67



1
 SUMMARY VOLUMETRIC BUDGET FOR GSFLOW 
 DATE: 06 23 1991              CUMULATIVE TIME STEP:      23
 MODFLOW STRESS PERIOD     10     CURRENT TIME STEP:     266     ITERATIONS:       6

 -----------------------------------------------------------------------------------

   CUMULATIVE VOLUMES               L**3   RATES FOR THIS TIME STEP           L**3/T
   ------------------                      ------------------------

                                     IN                                         IN
                                     --                                         --
        PRECIPITATION =        1.4671D+07          PRECIPITATION =                  
           STREAMFLOW =                               STREAMFLOW =                  
     GW BOUNDARY FLOW =            123.35       GW BOUNDARY FLOW =                  


                                    OUT                                        OUT
                                    ---                                        ---
   EVAPOTRANSPIRATION =        7995898.90     EVAPOTRANSPIRATION =          37007.10
           STREAMFLOW =        3192325.18             STREAMFLOW =          12976.03
     GW BOUNDARY FLOW =           9368.30       GW BOUNDARY FLOW =             33.64

   INFLOWS - OUTFLOWS =        3473505.77     INFLOWS - OUTFLOWS =         -50016.78
             --------                                   --------

 TOTAL STORAGE CHANGE =        3328625.84         STORAGE CHANGE =         -49807.15
       --------------                             --------------
         LAND SURFACE =          16911.50           LAND SURFACE =          -1658.21
            SOIL ZONE =        4919981.22              SOIL ZONE =         -45648.56
     UNSATURATED ZONE =       -2100706.71       UNSATURATED ZONE =          -1076.52
       SATURATED ZONE =         492433.33         SATURATED ZONE =          -1423.92

 OVERALL BUDGET ERROR =         144879.93           BUDGET ERROR =           -209.62


  PERCENT DISCREPANCY =              0.99    PERCENT DISCREPANCY =             -0.42



1
 SUMMARY VOLUMETRIC BUDGET FOR GSFLOW 
 DATE: 06 30 1991              CUMULATIVE TIME STEP:      30
 MODFLOW STRESS PERIOD     10     CURRENT TIME STEP:     273     ITERATIONS:      10

 -----------------------------------------------------------------------------------

   CUMULATIVE VOLUMES               L**3   RATES FOR THIS TIME STEP           L**3/T
[...]
                                    ---                                        ---
   EVAPOTRANSPIRATION =        8.1949D+07     EVAPOTRANSPIRATION =         111937.42
           STREAMFLOW =        4.8834D+07             STREAMFLOW =          13210.76
     GW BOUNDARY FLOW =          56403.28       GW BOUNDARY FLOW =             39.19

   INFLOWS - OUTFLOWS =        2672671.73     INFLOWS - OUTFLOWS =        -125187.37
             --------                                   --------

 TOTAL STORAGE CHANGE =        1427637.69         STORAGE CHANGE =        -124953.35
       --------------                             --------------
         LAND SURFACE =         524381.77           LAND SURFACE =         -24592.44
            SOIL ZONE =        4530990.64              SOIL ZONE =         -95978.79
     UNSATURATED ZONE =        2084990.88       UNSATURATED ZONE =         -16430.93
       SATURATED ZONE =       -5713113.48         SATURATED ZONE =          12048.27

 OVERALL BUDGET ERROR =        1245034.04           BUDGET ERROR =           -234.02


  PERCENT DISCREPANCY =              0.94    PERCENT DISCREPANCY =             -0.19



1
 SUMMARY VOLUMETRIC BUDGET FOR GSFLOW 
 DATE: 09 03 1995              CUMULATIVE TIME STEP:       3
 MODFLOW STRESS PERIOD     61     CURRENT TIME STEP:    1799     ITERATIONS:      11

 -----------------------------------------------------------------------------------

   CUMULATIVE VOLUMES               L**3   RATES FOR THIS TIME STEP           L**3/T
   ------------------                      ------------------------

                                     IN                                         IN
                                     --                                         --
        PRECIPITATION =        1.3351D+08          PRECIPITATION =                  
           STREAMFLOW =                               STREAMFLOW =                  
     GW BOUNDARY FLOW =           2955.05       GW BOUNDARY FLOW =                  


                                    OUT                                        OUT
                                    ---                                        ---
   EVAPOTRANSPIRATION =        8.2720D+07     EVAPOTRANSPIRATION =         105500.99
           STREAMFLOW =        4.8923D+07             STREAMFLOW =          12527.46
     GW BOUNDARY FLOW =          56677.40       GW BOUNDARY FLOW =             39.12

   INFLOWS - OUTFLOWS =        1811781.95     INFLOWS - OUTFLOWS =        -118067.58
             --------                                   --------

 TOTAL STORAGE CHANGE =         567893.02         STORAGE CHANGE =        -117998.00
       --------------                             --------------
         LAND SURFACE =         372015.97           LAND SURFACE =         -19446.39
            SOIL ZONE =        3872623.90              SOIL ZONE =         -89421.32
     UNSATURATED ZONE =        1967429.84       UNSATURATED ZONE =         -17521.42
       SATURATED ZONE =       -5644568.35         SATURATED ZONE =           8390.59

 OVERALL BUDGET ERROR =        1243888.93           BUDGET ERROR =            -69.58


  PERCENT DISCREPANCY =              0.94    PERCENT DISCREPANCY =             -0.06



1
 SUMMARY VOLUMETRIC BUDGET FOR GSFLOW 
 DATE: 09 10 1995              CUMULATIVE TIME STEP:      10
 MODFLOW STRESS PERIOD     61     CURRENT TIME STEP:    1806     ITERATIONS:      11

 -----------------------------------------------------------------------------------

   CUMULATIVE VOLUMES               L**3   RATES FOR THIS TIME STEP           L**3/T
   ------------------                      ------------------------

                                     IN                                         IN
                                     --                                         --
        PRECIPITATION =        1.3351D+08          PRECIPITATION =                  
           STREAMFLOW =                               STREAMFLOW =                  
     GW BOUNDARY FLOW =           2955.05       GW BOUNDARY FLOW =                  


                                    OUT                                        OUT
                                    ---                                        ---
   EVAPOTRANSPIRATION =        8.3323D+07     EVAPOTRANSPIRATION =          81291.24
           STREAMFLOW =        4.9010D+07             STREAMFLOW =          12230.66
     GW BOUNDARY FLOW =          56951.36       GW BOUNDARY FLOW =             39.11

   INFLOWS - OUTFLOWS =        1121600.70     INFLOWS - OUTFLOWS =         -93561.01
             --------                                   --------

 TOTAL STORAGE CHANGE =        -121831.41         STORAGE CHANGE =         -93495.95
       --------------                             --------------
         LAND SURFACE =         271470.12           LAND SURFACE =         -12572.77
            SOIL ZONE =        3353706.63              SOIL ZONE =         -69867.40
     UNSATURATED ZONE =        1842255.55       UNSATURATED ZONE =         -18103.52
       SATURATED ZONE =       -5589659.15         SATURATED ZONE =           7047.19

 OVERALL BUDGET ERROR =        1243432.11           BUDGET ERROR =            -65.06


  PERCENT DISCREPANCY =              0.93    PERCENT DISCREPANCY =             -0.07



1
 SUMMARY VOLUMETRIC BUDGET FOR GSFLOW 
 DATE: 09 17 1995              CUMULATIVE TIME STEP:      17
 MODFLOW STRESS PERIOD     61     CURRENT TIME STEP:    1813     ITERATIONS:      10

 -----------------------------------------------------------------------------------

   CUMULATIVE VOLUMES               L**3   RATES FOR THIS TIME STEP           L**3/T
   ------------------                      ------------------------

                                     IN                                         IN
                                     --                                         --
        PRECIPITATION =        1.3351D+08          PRECIPITATION =                  
           STREAMFLOW =                               STREAMFLOW =                  
     GW BOUNDARY FLOW =           2955.05       GW BOUNDARY FLOW =                  


                                    OUT                                        OUT
                                    ---                                        ---
   EVAPOTRANSPIRATION =        8.3990D+07     EVAPOTRANSPIRATION =          77450.22
           STREAMFLOW =        4.9089D+07             STREAMFLOW =          11295.63
     GW BOUNDARY FLOW =          57222.55       GW BOUNDARY FLOW =             38.69

   INFLOWS - OUTFLOWS =         374965.86     INFLOWS - OUTFLOWS =         -88784.54
             --------                                   --------

 TOTAL STORAGE CHANGE =        -867890.61         STORAGE CHANGE =         -88714.79
       --------------                             --------------
         LAND SURFACE =         180685.70           LAND SURFACE =          -9600.58
            SOIL ZONE =        2801474.49              SOIL ZONE =         -64678.55
     UNSATURATED ZONE =        1707260.77       UNSATURATED ZONE =         -19099.25
       SATURATED ZONE =       -5557710.80         SATURATED ZONE =           4663.04

 OVERALL BUDGET ERROR =        1242856.48           BUDGET ERROR =            -69.74


  PERCENT DISCREPANCY =              0.93    PERCENT DISCREPANCY =             -0.08



1
 SUMMARY VOLUMETRIC BUDGET FOR GSFLOW 
 DATE: 09 24 1995              CUMULATIVE TIME STEP:      24
 MODFLOW STRESS PERIOD     61     CURRENT TIME STEP:    1820     ITERATIONS:      10

 -----------------------------------------------------------------------------------

   CUMULATIVE VOLUMES               L**3   RATES FOR THIS TIME STEP           L**3/T
   ------------------                      ------------------------

                                     IN                                         IN
                                     --                                         --
        PRECIPITATION =        1.3351D+08          PRECIPITATION =                  
           STREAMFLOW =                               STREAMFLOW =                  
     GW BOUNDARY FLOW =           2955.05       GW BOUNDARY FLOW =                  


                                    OUT                                        OUT
                                    ---                                        ---
   EVAPOTRANSPIRATION =        8.4477D+07     EVAPOTRANSPIRATION =          50801.38
           STREAMFLOW =        4.9167D+07             STREAMFLOW =          11496.10
     GW BOUNDARY FLOW =          57492.32       GW BOUNDARY FLOW =             38.46

   INFLOWS - OUTFLOWS =        -190501.47     INFLOWS - OUTFLOWS =         -62335.94
             --------                                   --------

 TOTAL STORAGE CHANGE =       -1432904.17         STORAGE CHANGE =         -62289.02
       --------------                             --------------
         LAND SURFACE =         125692.08           LAND SURFACE =          -5511.04
            SOIL ZONE =        2396687.63              SOIL ZONE =         -43075.08
     UNSATURATED ZONE =        1577423.47       UNSATURATED ZONE =         -17714.07
       SATURATED ZONE =       -5533110.37         SATURATED ZONE =           4010.63

 OVERALL BUDGET ERROR =        1242402.70           BUDGET ERROR =            -46.92


  PERCENT DISCREPANCY =              0.92    PERCENT DISCREPANCY =             -0.08



1
 SUMMARY VOLUMETRIC BUDGET FOR GSFLOW 
 DATE: 10 01 1995              CUMULATIVE TIME STEP:       1
 MODFLOW STRESS PERIOD     62     CURRENT TIME STEP:    1827     ITERATIONS:       9

 -----------------------------------------------------------------------------------

   CUMULATIVE VOLUMES               L**3   RATES FOR THIS TIME STEP           L**3/T
   ------------------                      ------------------------

                                     IN                                         IN
                                     --                                         --
        PRECIPITATION =        1.3351D+08          PRECIPITATION =                  
           STREAMFLOW =                               STREAMFLOW =                  
     GW BOUNDARY FLOW =           2955.05       GW BOUNDARY FLOW =                  


                                    OUT                                        OUT
                                    ---                                        ---
   EVAPOTRANSPIRATION =        8.4683D+07     EVAPOTRANSPIRATION =          30685.28
           STREAMFLOW =        4.9252D+07             STREAMFLOW =          12036.34
     GW BOUNDARY FLOW =          57761.02       GW BOUNDARY FLOW =             38.29

   INFLOWS - OUTFLOWS =        -481437.04     INFLOWS - OUTFLOWS =         -42759.90
             --------                                   --------

 TOTAL STORAGE CHANGE =       -1723674.61         STORAGE CHANGE =         -42741.64
       --------------                             --------------
         LAND SURFACE =         102504.93           LAND SURFACE =          -2862.19
            SOIL ZONE =        2211401.06              SOIL ZONE =         -27666.96
     UNSATURATED ZONE =        1457343.44       UNSATURATED ZONE =         -16982.86
       SATURATED ZONE =       -5495330.84         SATURATED ZONE =           4769.82

 OVERALL BUDGET ERROR =        1242237.58           BUDGET ERROR =            -18.26


  PERCENT DISCREPANCY =              0.92    PERCENT DISCREPANCY =             -0.04



1
 SUMMARY VOLUMETRIC BUDGET FOR GSFLOW 
 DATE: 10 08 1995              CUMULATIVE TIME STEP:       8
 MODFLOW STRESS PERIOD     62     CURRENT TIME STEP:    1834     ITERATIONS:       9

 -----------------------------------------------------------------------------------

   CUMULATIVE VOLUMES               L**3   RATES FOR THIS TIME STEP           L**3/T
   ------------------                      ------------------------

                                     IN                                         IN
                                     --                                         --
        PRECIPITATION =        1.3351D+08          PRECIPITATION =                  
           STREAMFLOW =                               STREAMFLOW =                  
     GW BOUNDARY FLOW =           2955.05       GW BOUNDARY FLOW =                  


                                    OUT                                        OUT
                                    ---                                        ---
   EVAPOTRANSPIRATION =        8.4919D+07     EVAPOTRANSPIRATION =          29704.08
           STREAMFLOW =        4.9334D+07             STREAMFLOW =          11774.53
     GW BOUNDARY FLOW =          58027.88       GW BOUNDARY FLOW =             38.02

   INFLOWS - OUTFLOWS =        -799933.23     INFLOWS - OUTFLOWS =         -41516.62
             --------                                   --------

 TOTAL STORAGE CHANGE =       -2042010.88         STORAGE CHANGE =         -41499.53
       --------------                             --------------
         LAND SURFACE =          81951.52           LAND SURFACE =          -2502.54
            SOIL ZONE =        2006903.84              SOIL ZONE =         -25666.73
     UNSATURATED ZONE =        1339139.88       UNSATURATED ZONE =         -16866.36
       SATURATED ZONE =       -5470416.71         SATURATED ZONE =           3535.57

 OVERALL BUDGET ERROR =        1242077.65           BUDGET ERROR =            -17.09


  PERCENT DISCREPANCY =              0.92    PERCENT DISCREPANCY =             -0.04



1
 SUMMARY VOLUMETRIC BUDGET FOR GSFLOW 
 DATE: 10 15 1995              CUMULATIVE TIME STEP:      15
 MODFLOW STRESS PERIOD     62     CURRENT TIME STEP:    1841     ITERATIONS:      12

 -----------------------------------------------------------------------------------

   CUMULATIVE VOLUMES               L**3   RATES FOR THIS TIME STEP           L**3/T
   ------------------                      ------------------------

                                     IN                                         IN
                                     --                                         --
        PRECIPITATION =        1.3351D+08          PRECIPITATION =                  
           STREAMFLOW =                               STREAMFLOW =                  
     GW BOUNDARY FLOW =           2955.05       GW BOUNDARY FLOW =        1.9519D-03


                                    OUT                                        OUT
                                    ---                                        ---
   EVAPOTRANSPIRATION =        8.5150D+07     EVAPOTRANSPIRATION =          36873.66
           STREAMFLOW =        4.9414D+07             STREAMFLOW =          11168.78
     GW BOUNDARY FLOW =          58292.68       GW BOUNDARY FLOW =             37.68

   INFLOWS - OUTFLOWS =       -1110835.09     INFLOWS - OUTFLOWS =         -48080.12
             --------                                   --------

 TOTAL STORAGE CHANGE =       -2352737.68         STORAGE CHANGE =         -48045.33
       --------------                             --------------
         LAND SURFACE =          63226.18           LAND SURFACE =          -2687.15
            SOIL ZONE =        1815047.50              SOIL ZONE =         -30050.75
     UNSATURATED ZONE =        1222667.34       UNSATURATED ZONE =         -16568.73
       SATURATED ZONE =       -5454093.07         SATURATED ZONE =           1260.76

 OVERALL BUDGET ERROR =        1241902.58           BUDGET ERROR =            -34.79


  PERCENT DISCREPANCY =              0.92    PERCENT DISCREPANCY =             -0.07



1
 SUMMARY VOLUMETRIC BUDGET FOR GSFLOW 
 DATE: 10 22 1995              CUMULATIVE TIME STEP:      22
 MODFLOW STRESS PERIOD     62     CURRENT TIME STEP:    1848     ITERATIONS:      11

 -----------------------------------------------------------------------------------

   CUMULATIVE VOLUMES               L**3   RATES FOR THIS TIME STEP           L**3/T
   ------------------                      ------------------------

                                     IN                                         IN
                                     --                                         --
        PRECIPITATION =        1.3351D+08          PRECIPITATION =                  
           STREAMFLOW =                               STREAMFLOW =                  
     GW BOUNDARY FLOW =           2955.08       GW BOUNDARY FLOW =        4.6838D-03


                                    OUT                                        OUT
                                    ---                                        ---
   EVAPOTRANSPIRATION =        8.5359D+07     EVAPOTRANSPIRATION =           8756.00
           STREAMFLOW =        4.9493D+07             STREAMFLOW =          12360.16
     GW BOUNDARY FLOW =          58555.32       GW BOUNDARY FLOW =             37.48

   INFLOWS - OUTFLOWS =       -1399472.42     INFLOWS - OUTFLOWS =         -21153.64
             --------                                   --------

 TOTAL STORAGE CHANGE =       -2641185.38         STORAGE CHANGE =         -21153.77
       --------------                             --------------
         LAND SURFACE =          49141.37           LAND SURFACE =           -667.02
            SOIL ZONE =        1644209.28              SOIL ZONE =          -9287.54
     UNSATURATED ZONE =        1108562.75       UNSATURATED ZONE =         -15326.32
       SATURATED ZONE =       -5443516.94         SATURATED ZONE =           4126.57

 OVERALL BUDGET ERROR =        1241712.96           BUDGET ERROR =              0.13


  PERCENT DISCREPANCY =              0.92    PERCENT DISCREPANCY =              0.00



1
 SUMMARY VOLUMETRIC BUDGET FOR GSFLOW 
 DATE: 10 29 1995              CUMULATIVE TIME STEP:      29
 MODFLOW STRESS PERIOD     62     CURRENT TIME STEP:    1855     ITERATIONS:       9

 -----------------------------------------------------------------------------------

   CUMULATIVE VOLUMES               L**3   RATES FOR THIS TIME STEP           L**3/T
   ------------------                      ------------------------

                                     IN                                         IN
                                     --                                         --
        PRECIPITATION =        1.3351D+08          PRECIPITATION =                  
           STREAMFLOW =                               STREAMFLOW =                  
     GW BOUNDARY FLOW =           2955.12       GW BOUNDARY FLOW =        6.8094D-03


                                    OUT                                        OUT
                                    ---                                        ---
   EVAPOTRANSPIRATION =        8.5487D+07     EVAPOTRANSPIRATION =          22488.07
           STREAMFLOW =        4.9576D+07             STREAMFLOW =          11422.13
     GW BOUNDARY FLOW =          58816.31       GW BOUNDARY FLOW =             37.12

   INFLOWS - OUTFLOWS =       -1610486.65     INFLOWS - OUTFLOWS =         -33947.32
             --------                                   --------

 TOTAL STORAGE CHANGE =       -2852131.28         STORAGE CHANGE =         -33933.93
       --------------                             --------------
         LAND SURFACE =          42922.70           LAND SURFACE =          -1382.99
            SOIL ZONE =        1534410.28              SOIL ZONE =         -17914.87
     UNSATURATED ZONE =        1001273.47       UNSATURATED ZONE =         -15007.62
       SATURATED ZONE =       -5431159.68         SATURATED ZONE =            371.01

 OVERALL BUDGET ERROR =        1241644.64           BUDGET ERROR =            -13.39


  PERCENT DISCREPANCY =              0.91    PERCENT DISCREPANCY =             -0.04



