1
 SUMMARY VOLUMETRIC BUDGET FOR GSFLOW 
 DATE: 10 07 1990              CUMULATIVE TIME STEP:       7
 MODFLOW STRESS PERIOD      2     CURRENT TIME STEP:       7     ITERATIONS:       7

 -----------------------------------------------------------------------------------

   CUMULATIVE VOLUMES               L**3   RATES FOR THIS TIME STEP           L**3/T
   ------------------                      ------------------------

                                     IN                                         IN
                                     --                                         --
        PRECIPITATION =                            PRECIPITATION =                  
           STREAMFLOW =                               STREAMFLOW =                  
     GW BOUNDARY FLOW =                         GW BOUNDARY FLOW =                  


                                    OUT                                        OUT
                                    ---                                        ---
   EVAPOTRANSPIRATION =         381274.28     EVAPOTRANSPIRATION =          12557.77
           STREAMFLOW =          45744.87             STREAMFLOW =           8124.52
     GW BOUNDARY FLOW =            252.78       GW BOUNDARY FLOW =             36.30

   INFLOWS - OUTFLOWS =        -427271.93     INFLOWS - OUTFLOWS =         -20718.60
             --------                                   --------

 TOTAL STORAGE CHANGE =        -425815.52         STORAGE CHANGE =         -20692.96
       --------------                             --------------
         LAND SURFACE =                             LAND SURFACE =                  
            SOIL ZONE =         -33207.91              SOIL ZONE =          -1003.49
     UNSATURATED ZONE =        -500150.39       UNSATURATED ZONE =         -34306.04
       SATURATED ZONE =         107542.78         SATURATED ZONE =          14616.57

 OVERALL BUDGET ERROR =          -1456.40           BUDGET ERROR =            -25.64


  PERCENT DISCREPANCY =             -0.34    PERCENT DISCREPANCY =             -0.12



1
 SUMMARY VOLUMETRIC BUDGET FOR GSFLOW 
 DATE: 10 14 1990              CUMULATIVE TIME STEP:      14
 MODFLOW STRESS PERIOD      2     CURRENT TIME STEP:      14     ITERATIONS:       6

 -----------------------------------------------------------------------------------

   CUMULATIVE VOLUMES               L**3   RATES FOR THIS TIME STEP           L**3/T
   ------------------                      ------------------------

                                     IN                                         IN
                                     --                                         --
        PRECIPITATION =                            PRECIPITATION =                  
           STREAMFLOW =                               STREAMFLOW =                  
     GW BOUNDARY FLOW =                         GW BOUNDARY FLOW =                  


                                    OUT                                        OUT
                                    ---                                        ---
   EVAPOTRANSPIRATION =         659616.65     EVAPOTRANSPIRATION =          42722.87
           STREAMFLOW =         100594.96             STREAMFLOW =           7421.50
     GW BOUNDARY FLOW =            506.62       GW BOUNDARY FLOW =             36.24

   INFLOWS - OUTFLOWS =        -760718.23     INFLOWS - OUTFLOWS =         -50180.61
             --------                                   --------

 TOTAL STORAGE CHANGE =        -759001.58         STORAGE CHANGE =         -50163.25
       --------------                             --------------
         LAND SURFACE =                             LAND SURFACE =                  
            SOIL ZONE =         -57924.68              SOIL ZONE =          -4415.36
     UNSATURATED ZONE =        -874272.48       UNSATURATED ZONE =         -52543.05
       SATURATED ZONE =         173195.58         SATURATED ZONE =           6795.15

 OVERALL BUDGET ERROR =          -1716.65           BUDGET ERROR =            -17.36


  PERCENT DISCREPANCY =             -0.23    PERCENT DISCREPANCY =             -0.03



1
 SUMMARY VOLUMETRIC BUDGET FOR GSFLOW 
 DATE: 10 21 1990              CUMULATIVE TIME STEP:      21
 MODFLOW STRESS PERIOD      2     CURRENT TIME STEP:      21     ITERATIONS:       6

 -----------------------------------------------------------------------------------

   CUMULATIVE VOLUMES               L**3   RATES FOR THIS TIME STEP           L**3/T
   ------------------                      ------------------------

                                     IN                                         IN
                                     --                                         --
        PRECIPITATION =         188432.87          PRECIPITATION =                  
           STREAMFLOW =                               STREAMFLOW =                  
     GW BOUNDARY FLOW =                         GW BOUNDARY FLOW =                  


                                    OUT                                        OUT
                                    ---                                        ---
   EVAPOTRANSPIRATION =         801359.31     EVAPOTRANSPIRATION =          36525.61
           STREAMFLOW =         163656.22             STREAMFLOW =          10142.03
     GW BOUNDARY FLOW =            760.81       GW BOUNDARY FLOW =             36.37

   INFLOWS - OUTFLOWS =        -777343.47     INFLOWS - OUTFLOWS =         -46704.01
             --------                                   --------

 TOTAL STORAGE CHANGE =        -776843.12         STORAGE CHANGE =         -46711.77
       --------------                             --------------
         LAND SURFACE =          15977.62           LAND SURFACE =         -34861.64
            SOIL ZONE =          56434.52              SOIL ZONE =           -457.03
     UNSATURATED ZONE =       -1086351.28       UNSATURATED ZONE =         -22022.45
       SATURATED ZONE =         237096.01         SATURATED ZONE =          10629.35

 OVERALL BUDGET ERROR =           -500.35           BUDGET ERROR =              7.76


  PERCENT DISCREPANCY =             -0.05    PERCENT DISCREPANCY =              0.02



1
 SUMMARY VOLUMETRIC BUDGET FOR GSFLOW 
 DATE: 10 28 1990              CUMULATIVE TIME STEP:      28
 MODFLOW STRESS PERIOD      2     CURRENT TIME STEP:      28     ITERATIONS:       7

 -----------------------------------------------------------------------------------

   CUMULATIVE VOLUMES               L**3   RATES FOR THIS TIME STEP           L**3/T
   ------------------                      ------------------------

                                     IN                                         IN
                                     --                                         --
        PRECIPITATION =         188432.87          PRECIPITATION =                  
           STREAMFLOW =                               STREAMFLOW =                  
     GW BOUNDARY FLOW =                         GW BOUNDARY FLOW =                  


                                    OUT                                        OUT
                                    ---                                        ---
   EVAPOTRANSPIRATION =         925985.38     EVAPOTRANSPIRATION =          11157.78
           STREAMFLOW =         225274.09             STREAMFLOW =           8993.05
     GW BOUNDARY FLOW =           1014.00       GW BOUNDARY FLOW =             36.13

   INFLOWS - OUTFLOWS =        -963840.61     INFLOWS - OUTFLOWS =         -20186.95
             --------                                   --------

 TOTAL STORAGE CHANGE =        -963331.08         STORAGE CHANGE =         -20185.60
       --------------                             --------------
         LAND SURFACE =                             LAND SURFACE =                  
            SOIL ZONE =          28183.56              SOIL ZONE =          -3308.51
     UNSATURATED ZONE =       -1270586.98       UNSATURATED ZONE =         -23104.77
       SATURATED ZONE =         279072.33         SATURATED ZONE =           6227.68

 OVERALL BUDGET ERROR =           -509.53           BUDGET ERROR =             -1.36


  PERCENT DISCREPANCY =             -0.04    PERCENT DISCREPANCY =             -0.01



1
 SUMMARY VOLUMETRIC BUDGET FOR GSFLOW 
 DATE: 11 04 1990              CUMULATIVE TIME STEP:       4
 MODFLOW STRESS PERIOD      3     CURRENT TIME STEP:      35     ITERATIONS:       6

 -----------------------------------------------------------------------------------

   CUMULATIVE VOLUMES               L**3   RATES FOR THIS TIME STEP           L**3/T
   ------------------                      ------------------------

                                     IN                                         IN
                                     --                                         --
        PRECIPITATION =         703113.06          PRECIPITATION =                  
           STREAMFLOW =                               STREAMFLOW =                  
     GW BOUNDARY FLOW =                         GW BOUNDARY FLOW =                  


                                    OUT                                        OUT
                                    ---                                        ---
   EVAPOTRANSPIRATION =         985009.36     EVAPOTRANSPIRATION =          25494.01
           STREAMFLOW =         296445.02             STREAMFLOW =          10658.42
     GW BOUNDARY FLOW =           1267.06       GW BOUNDARY FLOW =             36.13

   INFLOWS - OUTFLOWS =        -579608.37     INFLOWS - OUTFLOWS =         -36188.56
             --------                                   --------

 TOTAL STORAGE CHANGE =        -584027.73         STORAGE CHANGE =         -37458.70
       --------------                             --------------
         LAND SURFACE =          71009.70           LAND SURFACE =         -84159.07
            SOIL ZONE =         421261.01              SOIL ZONE =          57445.60
     UNSATURATED ZONE =       -1416106.04       UNSATURATED ZONE =         -20059.01
       SATURATED ZONE =         339807.60         SATURATED ZONE =           9313.78

 OVERALL BUDGET ERROR =           4419.36           BUDGET ERROR =           1270.14

  ***WARNING, FLUX RATES OFF > 3%

  PERCENT DISCREPANCY =              0.34    PERCENT DISCREPANCY =              3.45



1
 SUMMARY VOLUMETRIC BUDGET FOR GSFLOW 
 DATE: 11 11 1990              CUMULATIVE TIME STEP:      11
 MODFLOW STRESS PERIOD      3     CURRENT TIME STEP:      42     ITERATIONS:       6

 -----------------------------------------------------------------------------------

   CUMULATIVE VOLUMES               L**3   RATES FOR THIS TIME STEP           L**3/T
   ------------------                      ------------------------

                                     IN                                         IN
                                     --                                         --
        PRECIPITATION =         703113.06          PRECIPITATION =                  
           STREAMFLOW =                               STREAMFLOW =                  
     GW BOUNDARY FLOW =                         GW BOUNDARY FLOW =                  


                                    OUT                                        OUT
                                    ---                                        ---
   EVAPOTRANSPIRATION =        1057597.91     EVAPOTRANSPIRATION =          12436.29
           STREAMFLOW =         367673.37             STREAMFLOW =           9678.60
     GW BOUNDARY FLOW =           1519.17       GW BOUNDARY FLOW =             35.93

   INFLOWS - OUTFLOWS =        -723677.38     INFLOWS - OUTFLOWS =         -22150.81
             --------                                   --------

 TOTAL STORAGE CHANGE =        -728284.00         STORAGE CHANGE =         -22151.60
       --------------                             --------------
         LAND SURFACE =            295.92           LAND SURFACE =           -859.89
            SOIL ZONE =         438066.12              SOIL ZONE =          -6304.10
     UNSATURATED ZONE =       -1555913.01       UNSATURATED ZONE =         -19955.36
       SATURATED ZONE =         389266.94         SATURATED ZONE =           4967.74

 OVERALL BUDGET ERROR =           4606.61           BUDGET ERROR =              0.79


  PERCENT DISCREPANCY =              0.32    PERCENT DISCREPANCY =              0.00



1
 SUMMARY VOLUMETRIC BUDGET FOR GSFLOW 
 DATE: 11 18 1990              CUMULATIVE TIME STEP:      18
 MODFLOW STRESS PERIOD      3     CURRENT TIME STEP:      49     ITERATIONS:       6

 -----------------------------------------------------------------------------------

   CUMULATIVE VOLUMES               L**3   RATES FOR THIS TIME STEP           L**3/T
   ------------------                      ------------------------

                                     IN                                         IN
                                     --                                         --
        PRECIPITATION =         747883.35          PRECIPITATION =                  
           STREAMFLOW =                               STREAMFLOW =                  
     GW BOUNDARY FLOW =                         GW BOUNDARY FLOW =                  


                                    OUT                                        OUT
                                    ---                                        ---
   EVAPOTRANSPIRATION =        1126287.67     EVAPOTRANSPIRATION =           5352.49
           STREAMFLOW =         439613.61             STREAMFLOW =          10703.01
     GW BOUNDARY FLOW =           1770.48       GW BOUNDARY FLOW =             35.88

   INFLOWS - OUTFLOWS =        -819788.41     INFLOWS - OUTFLOWS =         -16091.38
             --------                                   --------

 TOTAL STORAGE CHANGE =        -824435.96         STORAGE CHANGE =         -16102.83
       --------------                             --------------
         LAND SURFACE =          10077.61           LAND SURFACE =          -4199.79
            SOIL ZONE =         420778.34              SOIL ZONE =           -600.98
     UNSATURATED ZONE =       -1689355.50       UNSATURATED ZONE =         -18637.23
       SATURATED ZONE =         434063.54         SATURATED ZONE =           7335.17

 OVERALL BUDGET ERROR =           4647.55           BUDGET ERROR =             11.45


  PERCENT DISCREPANCY =              0.30    PERCENT DISCREPANCY =              0.07



1
 SUMMARY VOLUMETRIC BUDGET FOR GSFLOW 
 DATE: 11 25 1990              CUMULATIVE TIME STEP:      25
 MODFLOW STRESS PERIOD      3     CURRENT TIME STEP:      56     ITERATIONS:       6

 -----------------------------------------------------------------------------------

   CUMULATIVE VOLUMES               L**3   RATES FOR THIS TIME STEP           L**3/T
   ------------------                      ------------------------

                                     IN                                         IN
                                     --                                         --
        PRECIPITATION =        1009043.38          PRECIPITATION =         186542.88
           STREAMFLOW =                               STREAMFLOW =                  
     GW BOUNDARY FLOW =                         GW BOUNDARY FLOW =                  


                                    OUT                                        OUT
                                    ---                                        ---
   EVAPOTRANSPIRATION =        1186081.53     EVAPOTRANSPIRATION =           3807.44
           STREAMFLOW =         515732.44             STREAMFLOW =          10903.22
     GW BOUNDARY FLOW =           2021.43       GW BOUNDARY FLOW =             35.79

   INFLOWS - OUTFLOWS =        -694792.01     INFLOWS - OUTFLOWS =         171796.43
             --------                                   --------

 TOTAL STORAGE CHANGE =        -701585.45         STORAGE CHANGE =         169943.91
       --------------                             --------------
         LAND SURFACE =          92124.67           LAND SURFACE =          75233.82
            SOIL ZONE =         539871.55              SOIL ZONE =         106287.51
     UNSATURATED ZONE =       -1816995.89       UNSATURATED ZONE =         -17919.38
       SATURATED ZONE =         483414.15         SATURATED ZONE =           6341.95

 OVERALL BUDGET ERROR =           6793.44           BUDGET ERROR =           1852.52


  PERCENT DISCREPANCY =              0.40    PERCENT DISCREPANCY =              1.00



1
 SUMMARY VOLUMETRIC BUDGET FOR GSFLOW 
 DATE: 12 02 1990              CUMULATIVE TIME STEP:       2
 MODFLOW STRESS PERIOD      4     CURRENT TIME STEP:      63     ITERATIONS:       6

 -----------------------------------------------------------------------------------

   CUMULATIVE VOLUMES               L**3   RATES FOR THIS TIME STEP           L**3/T
   ------------------                      ------------------------

                                     IN                                         IN
                                     --                                         --
        PRECIPITATION =        1449284.55          PRECIPITATION =                  
           STREAMFLOW =                               STREAMFLOW =                  
     GW BOUNDARY FLOW =                         GW BOUNDARY FLOW =                  


                                    OUT                                        OUT
                                    ---                                        ---
   EVAPOTRANSPIRATION =        1193649.52     EVAPOTRANSPIRATION =            374.47
           STREAMFLOW =         593101.45             STREAMFLOW =          11092.45
     GW BOUNDARY FLOW =           2271.91       GW BOUNDARY FLOW =             35.77

   INFLOWS - OUTFLOWS =        -339738.33     INFLOWS - OUTFLOWS =         -11502.69
             --------                                   --------

 TOTAL STORAGE CHANGE =        -347645.96         STORAGE CHANGE =         -11515.41
       --------------                             --------------
         LAND SURFACE =         493448.43           LAND SURFACE =           -453.37
            SOIL ZONE =         570446.54              SOIL ZONE =            121.29
     UNSATURATED ZONE =       -1939886.23       UNSATURATED ZONE =         -17263.96
       SATURATED ZONE =         528345.21         SATURATED ZONE =           6080.62

 OVERALL BUDGET ERROR =           7907.62           BUDGET ERROR =             12.72


  PERCENT DISCREPANCY =              0.44    PERCENT DISCREPANCY =              0.11



1
 SUMMARY VOLUMETRIC BUDGET FOR GSFLOW 
 DATE: 12 09 1990              CUMULATIVE TIME STEP:       9
 MODFLOW STRESS PERIOD      4     CURRENT TIME STEP:      70     ITERATIONS:       6

 -----------------------------------------------------------------------------------

   CUMULATIVE VOLUMES               L**3   RATES FOR THIS TIME STEP           L**3/T
   ------------------                      ------------------------

                                     IN                                         IN
                                     --                                         --
        PRECIPITATION =        1449284.55          PRECIPITATION =                  
           STREAMFLOW =                               STREAMFLOW =                  
     GW BOUNDARY FLOW =                         GW BOUNDARY FLOW =                  


                                    OUT                                        OUT
                                    ---                                        ---
   EVAPOTRANSPIRATION =        1270535.64     EVAPOTRANSPIRATION =          13594.26
           STREAMFLOW =         670851.14             STREAMFLOW =          10885.46
     GW BOUNDARY FLOW =           2521.87       GW BOUNDARY FLOW =             35.64

   INFLOWS - OUTFLOWS =        -494624.09     INFLOWS - OUTFLOWS =         -24515.37
             --------                                   --------

 TOTAL STORAGE CHANGE =        -507000.69         STORAGE CHANGE =         -24636.62
       --------------                             --------------
         LAND SURFACE =          66382.66           LAND SURFACE =         -46525.53
            SOIL ZONE =         919913.99              SOIL ZONE =          34651.72
     UNSATURATED ZONE =       -2057713.13       UNSATURATED ZONE =         -16499.63
       SATURATED ZONE =         564415.67         SATURATED ZONE =           3736.80

 OVERALL BUDGET ERROR =          12376.60           BUDGET ERROR =            121.26


  PERCENT DISCREPANCY =              0.63    PERCENT DISCREPANCY =              0.49



1
 SUMMARY VOLUMETRIC BUDGET FOR GSFLOW 
 DATE: 12 16 1990              CUMULATIVE TIME STEP:      16
 MODFLOW STRESS PERIOD      4     CURRENT TIME STEP:      77     ITERATIONS:       6

 -----------------------------------------------------------------------------------

   CUMULATIVE VOLUMES               L**3   RATES FOR THIS TIME STEP           L**3/T
   ------------------                      ------------------------

                                     IN                                         IN
                                     --                                         --
        PRECIPITATION =        1804962.84          PRECIPITATION =                  
           STREAMFLOW =                               STREAMFLOW =                  
     GW BOUNDARY FLOW =                         GW BOUNDARY FLOW =                  


                                    OUT                                        OUT
                                    ---                                        ---
   EVAPOTRANSPIRATION =        1298819.05     EVAPOTRANSPIRATION =                  
           STREAMFLOW =         750649.35             STREAMFLOW =          11533.89
     GW BOUNDARY FLOW =           2771.28       GW BOUNDARY FLOW =             35.61

   INFLOWS - OUTFLOWS =        -247276.85     INFLOWS - OUTFLOWS =         -11569.49
             --------                                   --------

 TOTAL STORAGE CHANGE =        -261949.04         STORAGE CHANGE =         -11585.21
       --------------                             --------------
         LAND SURFACE =         256077.36           LAND SURFACE =                  
            SOIL ZONE =        1058073.85              SOIL ZONE =            -28.29
     UNSATURATED ZONE =       -2171120.10       UNSATURATED ZONE =         -15948.99
       SATURATED ZONE =         595019.70         SATURATED ZONE =           4392.07

 OVERALL BUDGET ERROR =          14672.19           BUDGET ERROR =             15.71


  PERCENT DISCREPANCY =              0.71    PERCENT DISCREPANCY =              0.14



1
 SUMMARY VOLUMETRIC BUDGET FOR GSFLOW 
 DATE: 12 23 1990              CUMULATIVE TIME STEP:      23
 MODFLOW STRESS PERIOD      4     CURRENT TIME STEP:      84     ITERATIONS:       6

 -----------------------------------------------------------------------------------

   CUMULATIVE VOLUMES               L**3   RATES FOR THIS TIME STEP           L**3/T
   ------------------                      ------------------------

                                     IN                                         IN
                                     --                                         --
        PRECIPITATION =        2276236.55          PRECIPITATION =                  
           STREAMFLOW =                               STREAMFLOW =                  
     GW BOUNDARY FLOW =              0.08       GW BOUNDARY FLOW =              0.04


                                    OUT                                        OUT
                                    ---                                        ---
   EVAPOTRANSPIRATION =        1300193.57     EVAPOTRANSPIRATION =                  
           STREAMFLOW =         831586.38             STREAMFLOW =          11584.29
     GW BOUNDARY FLOW =           3020.32       GW BOUNDARY FLOW =             35.57

   INFLOWS - OUTFLOWS =         141436.37     INFLOWS - OUTFLOWS =         -11619.82
             --------                                   --------

 TOTAL STORAGE CHANGE =         126663.30         STORAGE CHANGE =         -11633.32
       --------------                             --------------
         LAND SURFACE =         725980.66           LAND SURFACE =                  
            SOIL ZONE =        1058217.90              SOIL ZONE =             49.89
     UNSATURATED ZONE =       -2280341.78       UNSATURATED ZONE =         -15355.81
       SATURATED ZONE =         622806.33         SATURATED ZONE =           3672.59

 OVERALL BUDGET ERROR =          14773.06           BUDGET ERROR =             13.50


  PERCENT DISCREPANCY =              0.65    PERCENT DISCREPANCY =              0.12



1
 SUMMARY VOLUMETRIC BUDGET FOR GSFLOW 
 DATE: 12 30 1990              CUMULATIVE TIME STEP:      30
 MODFLOW STRESS PERIOD      4     CURRENT TIME STEP:      91     ITERATIONS:       5

 -----------------------------------------------------------------------------------

   CUMULATIVE VOLUMES               L**3   RATES FOR THIS TIME STEP           L**3/T
   ------------------                      ------------------------

                                     IN                                         IN
                                     --                                         --
        PRECIPITATION =        2276236.55          PRECIPITATION =                  
           STREAMFLOW =                               STREAMFLOW =                  
     GW BOUNDARY FLOW =              0.77       GW BOUNDARY FLOW =              0.14


                                    OUT                                        OUT
                                    ---                                        ---
   EVAPOTRANSPIRATION =        1300946.21     EVAPOTRANSPIRATION =                  
           STREAMFLOW =         912916.80             STREAMFLOW =          11646.43
     GW BOUNDARY FLOW =           3269.42       GW BOUNDARY FLOW =             35.60

   INFLOWS - OUTFLOWS =          59104.88     INFLOWS - OUTFLOWS =         -11681.89
             --------                                   --------

 TOTAL STORAGE CHANGE =          44252.55         STORAGE CHANGE =         -11691.64
       --------------                             --------------
         LAND SURFACE =         725228.17           LAND SURFACE =                  
            SOIL ZONE =        1058766.39              SOIL ZONE =             97.26
     UNSATURATED ZONE =       -2385671.23       UNSATURATED ZONE =         -14810.59
       SATURATED ZONE =         645928.98         SATURATED ZONE =           3021.68

 OVERALL BUDGET ERROR =          14852.33           BUDGET ERROR =              9.75


  PERCENT DISCREPANCY =              0.65    PERCENT DISCREPANCY =              0.08



1
 SUMMARY VOLUMETRIC BUDGET FOR GSFLOW 
 DATE: 01 06 1991              CUMULATIVE TIME STEP:       6
 MODFLOW STRESS PERIOD      5     CURRENT TIME STEP:      98     ITERATIONS:       5

 -----------------------------------------------------------------------------------

   CUMULATIVE VOLUMES               L**3   RATES FOR THIS TIME STEP           L**3/T
   ------------------                      ------------------------

                                     IN                                         IN
                                     --                                         --
        PRECIPITATION =        2276236.55          PRECIPITATION =                  
           STREAMFLOW =                               STREAMFLOW =                  
     GW BOUNDARY FLOW =              2.09       GW BOUNDARY FLOW =              0.22


                                    OUT                                        OUT
                                    ---                                        ---
   EVAPOTRANSPIRATION =        1324214.76     EVAPOTRANSPIRATION =           2582.15
           STREAMFLOW =         994858.99             STREAMFLOW =          11744.63
     GW BOUNDARY FLOW =           3519.29       GW BOUNDARY FLOW =             35.75

   INFLOWS - OUTFLOWS =         -46354.40     INFLOWS - OUTFLOWS =         -14362.31
             --------                                   --------

 TOTAL STORAGE CHANGE =         -63677.25         STORAGE CHANGE =         -14489.38
       --------------                             --------------
         LAND SURFACE =         620283.30           LAND SURFACE =          -6112.33
            SOIL ZONE =        1138713.26              SOIL ZONE =           3504.37
     UNSATURATED ZONE =       -2487045.77       UNSATURATED ZONE =         -14241.03
       SATURATED ZONE =         664371.68         SATURATED ZONE =           2359.61

 OVERALL BUDGET ERROR =          17322.85           BUDGET ERROR =            127.07


  PERCENT DISCREPANCY =              0.74    PERCENT DISCREPANCY =              0.88



1
 SUMMARY VOLUMETRIC BUDGET FOR GSFLOW 
 DATE: 01 13 1991              CUMULATIVE TIME STEP:      13
 MODFLOW STRESS PERIOD      5     CURRENT TIME STEP:     105     ITERATIONS:       6

 -----------------------------------------------------------------------------------

   CUMULATIVE VOLUMES               L**3   RATES FOR THIS TIME STEP           L**3/T
   ------------------                      ------------------------

                                     IN                                         IN
                                     --                                         --
        PRECIPITATION =        2596386.94          PRECIPITATION =          10327.43
           STREAMFLOW =                               STREAMFLOW =                  
     GW BOUNDARY FLOW =              4.02       GW BOUNDARY FLOW =              0.31


                                    OUT                                        OUT
                                    ---                                        ---
   EVAPOTRANSPIRATION =        1384025.85     EVAPOTRANSPIRATION =          16646.74
           STREAMFLOW =        1077182.42             STREAMFLOW =          11692.64
     GW BOUNDARY FLOW =           3769.51       GW BOUNDARY FLOW =             35.73

   INFLOWS - OUTFLOWS =         131413.17     INFLOWS - OUTFLOWS =         -18047.36
             --------                                   --------

 TOTAL STORAGE CHANGE =         109066.82         STORAGE CHANGE =         -19335.51
       --------------                             --------------
         LAND SURFACE =         586364.86           LAND SURFACE =        -135127.18
            SOIL ZONE =        1429943.60              SOIL ZONE =         128530.35
     UNSATURATED ZONE =       -2584350.31       UNSATURATED ZONE =         -13706.65
       SATURATED ZONE =         677108.34         SATURATED ZONE =            967.96

 OVERALL BUDGET ERROR =          22346.35           BUDGET ERROR =           1288.14

  ***WARNING, FLUX RATES OFF > 3%

  PERCENT DISCREPANCY =              0.86    PERCENT DISCREPANCY =              4.44



1
 SUMMARY VOLUMETRIC BUDGET FOR GSFLOW 
 DATE: 01 20 1991              CUMULATIVE TIME STEP:      20
 MODFLOW STRESS PERIOD      5     CURRENT TIME STEP:     112     ITERATIONS:       5

 -----------------------------------------------------------------------------------

   CUMULATIVE VOLUMES               L**3   RATES FOR THIS TIME STEP           L**3/T
   ------------------                      ------------------------

                                     IN                                         IN
                                     --                                         --
        PRECIPITATION =        2596386.94          PRECIPITATION =                  
           STREAMFLOW =                               STREAMFLOW =                  
     GW BOUNDARY FLOW =              6.55       GW BOUNDARY FLOW =              0.40


                                    OUT                                        OUT
                                    ---                                        ---
   EVAPOTRANSPIRATION =        1452233.71     EVAPOTRANSPIRATION =           1810.20
           STREAMFLOW =        1160293.84             STREAMFLOW =          11903.32
     GW BOUNDARY FLOW =           4019.76       GW BOUNDARY FLOW =             35.75

   INFLOWS - OUTFLOWS =         -20153.81     INFLOWS - OUTFLOWS =         -13748.87
             --------                                   --------

 TOTAL STORAGE CHANGE =         -43550.57         STORAGE CHANGE =         -13758.01
       --------------                             --------------
         LAND SURFACE =         422210.59           LAND SURFACE =           -295.67
            SOIL ZONE =        1526075.30              SOIL ZONE =          -1449.69
     UNSATURATED ZONE =       -2677735.33       UNSATURATED ZONE =         -13120.82
       SATURATED ZONE =         685898.49         SATURATED ZONE =           1108.16

 OVERALL BUDGET ERROR =          23396.75           BUDGET ERROR =              9.14


  PERCENT DISCREPANCY =              0.89    PERCENT DISCREPANCY =              0.07



1
 SUMMARY VOLUMETRIC BUDGET FOR GSFLOW 
 DATE: 01 27 1991              CUMULATIVE TIME STEP:      27
 MODFLOW STRESS PERIOD      5     CURRENT TIME STEP:     119     ITERATIONS:       5

 -----------------------------------------------------------------------------------

   CUMULATIVE VOLUMES               L**3   RATES FOR THIS TIME STEP           L**3/T
   ------------------                      ------------------------

                                     IN                                         IN
                                     --                                         --
        PRECIPITATION =        2596386.94          PRECIPITATION =                  
           STREAMFLOW =                               STREAMFLOW =                  
     GW BOUNDARY FLOW =              9.66       GW BOUNDARY FLOW =              0.48


                                    OUT                                        OUT
                                    ---                                        ---
   EVAPOTRANSPIRATION =        1473213.15     EVAPOTRANSPIRATION =           1215.86
           STREAMFLOW =        1243586.13             STREAMFLOW =          11923.72
     GW BOUNDARY FLOW =           4269.97       GW BOUNDARY FLOW =             35.74

   INFLOWS - OUTFLOWS =        -124672.65     INFLOWS - OUTFLOWS =         -13174.85
             --------                                   --------

 TOTAL STORAGE CHANGE =        -148331.06         STORAGE CHANGE =         -13174.72
       --------------                             --------------
         LAND SURFACE =         394226.40           LAND SURFACE =           -109.80
            SOIL ZONE =        1533971.49              SOIL ZONE =          -1009.56
     UNSATURATED ZONE =       -2767617.24       UNSATURATED ZONE =         -12617.68
       SATURATED ZONE =         691087.84         SATURATED ZONE =            562.31

 OVERALL BUDGET ERROR =          23658.42           BUDGET ERROR =             -0.13


  PERCENT DISCREPANCY =              0.87    PERCENT DISCREPANCY =             -0.00



1
 SUMMARY VOLUMETRIC BUDGET FOR GSFLOW 
 DATE: 02 03 1991              CUMULATIVE TIME STEP:       3
 MODFLOW STRESS PERIOD      6     CURRENT TIME STEP:     126     ITERATIONS:       6

 -----------------------------------------------------------------------------------

   CUMULATIVE VOLUMES               L**3   RATES FOR THIS TIME STEP           L**3/T
   ------------------                      ------------------------

                                     IN                                         IN
                                     --                                         --
        PRECIPITATION =        3228422.31          PRECIPITATION =          30459.53
           STREAMFLOW =                               STREAMFLOW =                  
     GW BOUNDARY FLOW =             13.31       GW BOUNDARY FLOW =              0.55


                                    OUT                                        OUT
                                    ---                                        ---
   EVAPOTRANSPIRATION =        1571559.91     EVAPOTRANSPIRATION =          20004.03
           STREAMFLOW =        1328385.77             STREAMFLOW =          12225.69
     GW BOUNDARY FLOW =           4520.14       GW BOUNDARY FLOW =             35.74

   INFLOWS - OUTFLOWS =         323969.80     INFLOWS - OUTFLOWS =          -1805.37
             --------                                   --------

 TOTAL STORAGE CHANGE =         293231.05         STORAGE CHANGE =          -2085.42
       --------------                             --------------
         LAND SURFACE =         184727.70           LAND SURFACE =         -28670.24
            SOIL ZONE =        2271759.22              SOIL ZONE =          38954.69
     UNSATURATED ZONE =       -2854366.21       UNSATURATED ZONE =         -12241.51
       SATURATED ZONE =         691109.83         SATURATED ZONE =           -128.37

 OVERALL BUDGET ERROR =          30738.75           BUDGET ERROR =            280.05


  PERCENT DISCREPANCY =              0.96    PERCENT DISCREPANCY =              0.86



1
 SUMMARY VOLUMETRIC BUDGET FOR GSFLOW 
 DATE: 02 10 1991              CUMULATIVE TIME STEP:      10
 MODFLOW STRESS PERIOD      6     CURRENT TIME STEP:     133     ITERATIONS:       5

 -----------------------------------------------------------------------------------

   CUMULATIVE VOLUMES               L**3   RATES FOR THIS TIME STEP           L**3/T
   ------------------                      ------------------------

                                     IN                                         IN
                                     --                                         --
        PRECIPITATION =        3510173.01          PRECIPITATION =                  
           STREAMFLOW =                               STREAMFLOW =                  
     GW BOUNDARY FLOW =             17.49       GW BOUNDARY FLOW =              0.63


                                    OUT                                        OUT
                                    ---                                        ---
   EVAPOTRANSPIRATION =        1737032.81     EVAPOTRANSPIRATION =          25306.38
           STREAMFLOW =        1414425.11             STREAMFLOW =          12163.15
     GW BOUNDARY FLOW =           4770.22       GW BOUNDARY FLOW =             35.72

   INFLOWS - OUTFLOWS =         353962.36     INFLOWS - OUTFLOWS =         -37504.62
             --------                                   --------

 TOTAL STORAGE CHANGE =         320197.73         STORAGE CHANGE =         -37462.33
       --------------                             --------------
         LAND SURFACE =          90050.80           LAND SURFACE =         -12330.62
            SOIL ZONE =        2478919.30              SOIL ZONE =         -12758.35
     UNSATURATED ZONE =       -2937591.03       UNSATURATED ZONE =         -11745.91
       SATURATED ZONE =         688818.06         SATURATED ZONE =           -627.46

 OVERALL BUDGET ERROR =          33764.63           BUDGET ERROR =            -42.30


  PERCENT DISCREPANCY =              0.97    PERCENT DISCREPANCY =             -0.11



1
 SUMMARY VOLUMETRIC BUDGET FOR GSFLOW 
 DATE: 02 17 1991              CUMULATIVE TIME STEP:      17
 MODFLOW STRESS PERIOD      6     CURRENT TIME STEP:     140     ITERATIONS:       5

 -----------------------------------------------------------------------------------

   CUMULATIVE VOLUMES               L**3   RATES FOR THIS TIME STEP           L**3/T
   ------------------                      ------------------------

                                     IN                                         IN
                                     --                                         --
        PRECIPITATION =        3510173.01          PRECIPITATION =                  
           STREAMFLOW =                               STREAMFLOW =                  
     GW BOUNDARY FLOW =             22.16       GW BOUNDARY FLOW =              0.70


                                    OUT                                        OUT
                                    ---                                        ---
   EVAPOTRANSPIRATION =        1977134.40     EVAPOTRANSPIRATION =          23092.48
           STREAMFLOW =        1499223.52             STREAMFLOW =          12115.86
     GW BOUNDARY FLOW =           5020.16       GW BOUNDARY FLOW =             35.68

   INFLOWS - OUTFLOWS =          28817.09     INFLOWS - OUTFLOWS =         -35243.32
             --------                                   --------

 TOTAL STORAGE CHANGE =          -4347.84         STORAGE CHANGE =         -35167.66
       --------------                             --------------
         LAND SURFACE =          18163.74           LAND SURFACE =          -1654.25
            SOIL ZONE =        2312545.90              SOIL ZONE =         -21375.09
     UNSATURATED ZONE =       -3017374.06       UNSATURATED ZONE =         -11049.33
       SATURATED ZONE =         682315.91         SATURATED ZONE =          -1089.00

 OVERALL BUDGET ERROR =          33164.93           BUDGET ERROR =            -75.66


  PERCENT DISCREPANCY =              0.95    PERCENT DISCREPANCY =             -0.21



1
 SUMMARY VOLUMETRIC BUDGET FOR GSFLOW 
 DATE: 02 24 1991              CUMULATIVE TIME STEP:      24
 MODFLOW STRESS PERIOD      6     CURRENT TIME STEP:     147     ITERATIONS:       5

 -----------------------------------------------------------------------------------

   CUMULATIVE VOLUMES               L**3   RATES FOR THIS TIME STEP           L**3/T
   ------------------                      ------------------------

                                     IN                                         IN
                                     --                                         --
        PRECIPITATION =        3510173.01          PRECIPITATION =                  
           STREAMFLOW =                               STREAMFLOW =                  
     GW BOUNDARY FLOW =             27.31       GW BOUNDARY FLOW =              0.76


                                    OUT                                        OUT
                                    ---                                        ---
   EVAPOTRANSPIRATION =        2192294.47     EVAPOTRANSPIRATION =          21916.84
           STREAMFLOW =        1583613.13             STREAMFLOW =          12043.42
     GW BOUNDARY FLOW =           5269.21       GW BOUNDARY FLOW =             35.51

   INFLOWS - OUTFLOWS =        -270976.50     INFLOWS - OUTFLOWS =         -33995.00
             --------                                   --------

 TOTAL STORAGE CHANGE =        -303440.52         STORAGE CHANGE =         -33920.98
       --------------                             --------------
         LAND SURFACE =           6686.42           LAND SURFACE =           -239.07
            SOIL ZONE =        2110461.67              SOIL ZONE =         -21440.76
     UNSATURATED ZONE =       -3093088.39       UNSATURATED ZONE =         -10651.73
       SATURATED ZONE =         672499.02         SATURATED ZONE =          -1589.43

 OVERALL BUDGET ERROR =          32464.02           BUDGET ERROR =            -74.03


  PERCENT DISCREPANCY =              0.85    PERCENT DISCREPANCY =             -0.22



1
 SUMMARY VOLUMETRIC BUDGET FOR GSFLOW 
 DATE: 03 03 1991              CUMULATIVE TIME STEP:       3
 MODFLOW STRESS PERIOD      7     CURRENT TIME STEP:     154     ITERATIONS:       5

 -----------------------------------------------------------------------------------

   CUMULATIVE VOLUMES               L**3   RATES FOR THIS TIME STEP           L**3/T
   ------------------                      ------------------------

                                     IN                                         IN
                                     --                                         --
        PRECIPITATION =        6220189.63          PRECIPITATION =        1243187.24
           STREAMFLOW =                               STREAMFLOW =                  
     GW BOUNDARY FLOW =             32.91       GW BOUNDARY FLOW =              0.83


                                    OUT                                        OUT
                                    ---                                        ---
   EVAPOTRANSPIRATION =        2344489.54     EVAPOTRANSPIRATION =           7990.31
           STREAMFLOW =        1667595.74             STREAMFLOW =          12235.36
     GW BOUNDARY FLOW =           5517.00       GW BOUNDARY FLOW =             35.33

   INFLOWS - OUTFLOWS =        2202620.25     INFLOWS - OUTFLOWS =        1222927.07
             --------                                   --------

 TOTAL STORAGE CHANGE =        2163899.61         STORAGE CHANGE =        1216205.22
       --------------                             --------------
         LAND SURFACE =        2505892.53           LAND SURFACE =        1046737.06
            SOIL ZONE =        2165794.18              SOIL ZONE =         182125.57
     UNSATURATED ZONE =       -3165976.07       UNSATURATED ZONE =         -10259.92
       SATURATED ZONE =         658188.11         SATURATED ZONE =          -2397.51

 OVERALL BUDGET ERROR =          38720.65           BUDGET ERROR =           6721.86


  PERCENT DISCREPANCY =              0.62    PERCENT DISCREPANCY =              0.54



1
 SUMMARY VOLUMETRIC BUDGET FOR GSFLOW 
 DATE: 03 10 1991              CUMULATIVE TIME STEP:      10
 MODFLOW STRESS PERIOD      7     CURRENT TIME STEP:     161     ITERATIONS:       7

 -----------------------------------------------------------------------------------

   CUMULATIVE VOLUMES               L**3   RATES FOR THIS TIME STEP           L**3/T
   ------------------                      ------------------------

                                     IN                                         IN
                                     --                                         --
        PRECIPITATION =        8746030.42          PRECIPITATION =          32888.55
           STREAMFLOW =                               STREAMFLOW =                  
     GW BOUNDARY FLOW =             38.94       GW BOUNDARY FLOW =              0.89


                                    OUT                                        OUT
                                    ---                                        ---
   EVAPOTRANSPIRATION =        2397172.88     EVAPOTRANSPIRATION =           6895.90
           STREAMFLOW =        1803057.84             STREAMFLOW =          18601.03
     GW BOUNDARY FLOW =           5765.02       GW BOUNDARY FLOW =             35.36

   INFLOWS - OUTFLOWS =        4540073.63     INFLOWS - OUTFLOWS =           7357.15
             --------                                   --------

 TOTAL STORAGE CHANGE =        4468791.12         STORAGE CHANGE =           6299.32
       --------------                             --------------
         LAND SURFACE =        3056677.02           LAND SURFACE =          -5526.40
            SOIL ZONE =        3969789.29              SOIL ZONE =          18649.98
     UNSATURATED ZONE =       -3206557.69       UNSATURATED ZONE =          -5027.30
       SATURATED ZONE =         648881.45         SATURATED ZONE =          -1796.98

 OVERALL BUDGET ERROR =          71282.50           BUDGET ERROR =           1057.83

  ***WARNING, FLUX RATES OFF > 3%

  PERCENT DISCREPANCY =              0.82    PERCENT DISCREPANCY =              3.27



1
 SUMMARY VOLUMETRIC BUDGET FOR GSFLOW 
 DATE: 03 17 1991              CUMULATIVE TIME STEP:      17
 MODFLOW STRESS PERIOD      7     CURRENT TIME STEP:     168     ITERATIONS:       6

 -----------------------------------------------------------------------------------

   CUMULATIVE VOLUMES               L**3   RATES FOR THIS TIME STEP           L**3/T
   ------------------                      ------------------------

                                     IN                                         IN
                                     --                                         --
        PRECIPITATION =        9897129.71          PRECIPITATION =         157865.04
           STREAMFLOW =                               STREAMFLOW =                  
     GW BOUNDARY FLOW =             45.40       GW BOUNDARY FLOW =              0.95


                                    OUT                                        OUT
                                    ---                                        ---
   EVAPOTRANSPIRATION =        2418573.28     EVAPOTRANSPIRATION =           6375.05
           STREAMFLOW =        1926559.02             STREAMFLOW =          17166.82
     GW BOUNDARY FLOW =           6011.84       GW BOUNDARY FLOW =             35.18

   INFLOWS - OUTFLOWS =        5546030.98     INFLOWS - OUTFLOWS =         134288.94
             --------                                   --------

 TOTAL STORAGE CHANGE =        5474660.16         STORAGE CHANGE =         134304.65
       --------------                             --------------
         LAND SURFACE =        4188230.79           LAND SURFACE =         152136.56
            SOIL ZONE =        3894575.58              SOIL ZONE =          -9895.80
     UNSATURATED ZONE =       -3242403.09       UNSATURATED ZONE =          -5369.03
       SATURATED ZONE =         634255.63         SATURATED ZONE =          -2567.11

 OVERALL BUDGET ERROR =          71370.82           BUDGET ERROR =            -15.71


  PERCENT DISCREPANCY =              0.72    PERCENT DISCREPANCY =             -0.01



1
 SUMMARY VOLUMETRIC BUDGET FOR GSFLOW 
 DATE: 03 24 1991              CUMULATIVE TIME STEP:      24
 MODFLOW STRESS PERIOD      7     CURRENT TIME STEP:     175     ITERATIONS:       5

 -----------------------------------------------------------------------------------

   CUMULATIVE VOLUMES               L**3   RATES FOR THIS TIME STEP           L**3/T
   ------------------                      ------------------------

                                     IN                                         IN
                                     --                                         --
        PRECIPITATION =        1.1673D+07          PRECIPITATION =        1230031.83
           STREAMFLOW =                               STREAMFLOW =                  
     GW BOUNDARY FLOW =             52.26       GW BOUNDARY FLOW =              1.00


                                    OUT                                        OUT
                                    ---                                        ---
   EVAPOTRANSPIRATION =        2449439.83     EVAPOTRANSPIRATION =           3629.23
           STREAMFLOW =        2044829.29             STREAMFLOW =          16705.94
     GW BOUNDARY FLOW =           6257.51       GW BOUNDARY FLOW =             35.03

   INFLOWS - OUTFLOWS =        7172637.14     INFLOWS - OUTFLOWS =        1209662.64
             --------                                   --------

 TOTAL STORAGE CHANGE =        7101359.40         STORAGE CHANGE =        1209820.56
       --------------                             --------------
         LAND SURFACE =        5933783.02           LAND SURFACE =        1227482.51
            SOIL ZONE =        3832389.07              SOIL ZONE =          -9350.17
     UNSATURATED ZONE =       -3280343.21       UNSATURATED ZONE =          -5498.65
       SATURATED ZONE =         615529.07         SATURATED ZONE =          -2813.17

 OVERALL BUDGET ERROR =          71277.74           BUDGET ERROR =           -157.92


  PERCENT DISCREPANCY =              0.61    PERCENT DISCREPANCY =             -0.01



1
 SUMMARY VOLUMETRIC BUDGET FOR GSFLOW 
 DATE: 03 31 1991              CUMULATIVE TIME STEP:      31
 MODFLOW STRESS PERIOD      7     CURRENT TIME STEP:     182     ITERATIONS:       5

 -----------------------------------------------------------------------------------

   CUMULATIVE VOLUMES               L**3   RATES FOR THIS TIME STEP           L**3/T
   ------------------                      ------------------------

                                     IN                                         IN
                                     --                                         --
        PRECIPITATION =        1.2495D+07          PRECIPITATION =                  
           STREAMFLOW =                               STREAMFLOW =                  
     GW BOUNDARY FLOW =             59.51       GW BOUNDARY FLOW =              1.06


                                    OUT                                        OUT
                                    ---                                        ---
   EVAPOTRANSPIRATION =        2555976.73     EVAPOTRANSPIRATION =          43675.48
           STREAMFLOW =        2163483.05             STREAMFLOW =          18850.89
     GW BOUNDARY FLOW =           6502.26       GW BOUNDARY FLOW =             34.95

   INFLOWS - OUTFLOWS =        7769422.75     INFLOWS - OUTFLOWS =         -62560.25
             --------                                   --------

 TOTAL STORAGE CHANGE =        7694230.06         STORAGE CHANGE =         -65531.34
       --------------                             --------------
         LAND SURFACE =        6553217.20           LAND SURFACE =        -112248.23
            SOIL ZONE =        3863451.05              SOIL ZONE =          54505.80
     UNSATURATED ZONE =       -3317633.90       UNSATURATED ZONE =          -4818.35
       SATURATED ZONE =         595194.04         SATURATED ZONE =          -2970.60

 OVERALL BUDGET ERROR =          75192.70           BUDGET ERROR =           2971.08

  ***WARNING, FLUX RATES OFF > 3%

  PERCENT DISCREPANCY =              0.60    PERCENT DISCREPANCY =              4.64



1
 SUMMARY VOLUMETRIC BUDGET FOR GSFLOW 
 DATE: 04 07 1991              CUMULATIVE TIME STEP:       7
 MODFLOW STRESS PERIOD      8     CURRENT TIME STEP:     189     ITERATIONS:       7

 -----------------------------------------------------------------------------------

   CUMULATIVE VOLUMES               L**3   RATES FOR THIS TIME STEP           L**3/T
   ------------------                      ------------------------

                                     IN                                         IN
                                     --                                         --
        PRECIPITATION =        1.3018D+07          PRECIPITATION =                  
           STREAMFLOW =                               STREAMFLOW =                  
     GW BOUNDARY FLOW =             67.13       GW BOUNDARY FLOW =              1.11


                                    OUT                                        OUT
                                    ---                                        ---
   EVAPOTRANSPIRATION =        2839158.40     EVAPOTRANSPIRATION =          13548.64
           STREAMFLOW =        2426515.37             STREAMFLOW =          52212.55
     GW BOUNDARY FLOW =           6748.83       GW BOUNDARY FLOW =             35.45

   INFLOWS - OUTFLOWS =        7745381.27     INFLOWS - OUTFLOWS =         -65795.53
             --------                                   --------

 TOTAL STORAGE CHANGE =        7636983.43         STORAGE CHANGE =         -66243.20
       --------------                             --------------
         LAND SURFACE =        5033740.14           LAND SURFACE =         -59134.98
            SOIL ZONE =        5338381.94              SOIL ZONE =         -12075.13
     UNSATURATED ZONE =       -3312415.41       UNSATURATED ZONE =           6717.04
       SATURATED ZONE =         577274.83         SATURATED ZONE =          -1750.17

 OVERALL BUDGET ERROR =         108397.84           BUDGET ERROR =            447.67


  PERCENT DISCREPANCY =              0.84    PERCENT DISCREPANCY =              0.68



1
 SUMMARY VOLUMETRIC BUDGET FOR GSFLOW 
 DATE: 04 14 1991              CUMULATIVE TIME STEP:      14
 MODFLOW STRESS PERIOD      8     CURRENT TIME STEP:     196     ITERATIONS:       7

 -----------------------------------------------------------------------------------

   CUMULATIVE VOLUMES               L**3   RATES FOR THIS TIME STEP           L**3/T
   ------------------                      ------------------------

                                     IN                                         IN
                                     --                                         --
        PRECIPITATION =        1.3018D+07          PRECIPITATION =                  
           STREAMFLOW =                               STREAMFLOW =                  
     GW BOUNDARY FLOW =             75.08       GW BOUNDARY FLOW =              1.16


                                    OUT                                        OUT
                                    ---                                        ---
   EVAPOTRANSPIRATION =        3008981.86     EVAPOTRANSPIRATION =          38932.87
           STREAMFLOW =        2840953.77             STREAMFLOW =          64140.95
     GW BOUNDARY FLOW =           6997.08       GW BOUNDARY FLOW =             35.48

   INFLOWS - OUTFLOWS =        7160879.11     INFLOWS - OUTFLOWS =        -103108.14
             --------                                   --------

 TOTAL STORAGE CHANGE =        7057277.06         STORAGE CHANGE =        -103758.83
       --------------                             --------------
         LAND SURFACE =        4429762.57           LAND SURFACE =        -170838.53
            SOIL ZONE =        5330815.64              SOIL ZONE =          62755.14
     UNSATURATED ZONE =       -3264541.25       UNSATURATED ZONE =           6580.63
       SATURATED ZONE =         561237.86         SATURATED ZONE =          -2256.11

 OVERALL BUDGET ERROR =         103602.05           BUDGET ERROR =            650.69


  PERCENT DISCREPANCY =              0.80    PERCENT DISCREPANCY =              0.63



1
 SUMMARY VOLUMETRIC BUDGET FOR GSFLOW 
 DATE: 04 21 1991              CUMULATIVE TIME STEP:      21
 MODFLOW STRESS PERIOD      8     CURRENT TIME STEP:     203     ITERATIONS:       7

 -----------------------------------------------------------------------------------

   CUMULATIVE VOLUMES               L**3   RATES FOR THIS TIME STEP           L**3/T
   ------------------                      ------------------------

                                     IN                                         IN
                                     --                                         --
        PRECIPITATION =        1.3034D+07          PRECIPITATION =                  
           STREAMFLOW =                               STREAMFLOW =                  
     GW BOUNDARY FLOW =             83.34       GW BOUNDARY FLOW =              1.20


                                    OUT                                        OUT
                                    ---                                        ---
   EVAPOTRANSPIRATION =        3240651.61     EVAPOTRANSPIRATION =          43438.50
           STREAMFLOW =        3348369.63             STREAMFLOW =          85309.48
     GW BOUNDARY FLOW =           7245.78       GW BOUNDARY FLOW =             35.65

   INFLOWS - OUTFLOWS =        6437878.42     INFLOWS - OUTFLOWS =        -128782.43
             --------                                   --------

 TOTAL STORAGE CHANGE =        6346019.37         STORAGE CHANGE =        -126325.37
       --------------                             --------------
         LAND SURFACE =        3339485.95           LAND SURFACE =        -212222.76
            SOIL ZONE =        5673203.47              SOIL ZONE =          78800.47
     UNSATURATED ZONE =       -3213088.66       UNSATURATED ZONE =           9061.21
       SATURATED ZONE =         546416.03         SATURATED ZONE =          -1964.33

 OVERALL BUDGET ERROR =          91859.05           BUDGET ERROR =          -2457.06


  PERCENT DISCREPANCY =              0.71    PERCENT DISCREPANCY =             -1.93



1
 SUMMARY VOLUMETRIC BUDGET FOR GSFLOW 
 DATE: 04 28 1991              CUMULATIVE TIME STEP:      28
 MODFLOW STRESS PERIOD      8     CURRENT TIME STEP:     210     ITERATIONS:       6

 -----------------------------------------------------------------------------------

   CUMULATIVE VOLUMES               L**3   RATES FOR THIS TIME STEP           L**3/T
   ------------------                      ------------------------

                                     IN                                         IN
                                     --                                         --
        PRECIPITATION =        1.3303D+07          PRECIPITATION =                  
           STREAMFLOW =                               STREAMFLOW =                  
     GW BOUNDARY FLOW =             91.87       GW BOUNDARY FLOW =              1.23


                                    OUT                                        OUT
                                    ---                                        ---
   EVAPOTRANSPIRATION =        3487498.62     EVAPOTRANSPIRATION =          55254.99
           STREAMFLOW =        3966379.70             STREAMFLOW =          85423.95
     GW BOUNDARY FLOW =           7495.17       GW BOUNDARY FLOW =             35.54

   INFLOWS - OUTFLOWS =        5842148.89     INFLOWS - OUTFLOWS =        -140713.24
             --------                                   --------

 TOTAL STORAGE CHANGE =        5789241.68         STORAGE CHANGE =        -134237.25
       --------------                             --------------
         LAND SURFACE =        2758651.61           LAND SURFACE =        -113752.45
            SOIL ZONE =        5645303.07              SOIL ZONE =         -27083.18
     UNSATURATED ZONE =       -3148555.83       UNSATURATED ZONE =           8369.22
       SATURATED ZONE =         533839.85         SATURATED ZONE =          -1770.90

 OVERALL BUDGET ERROR =          52907.21           BUDGET ERROR =          -6476.00

  ***WARNING, FLUX RATES OFF > 3%

  PERCENT DISCREPANCY =              0.40    PERCENT DISCREPANCY =             -4.71



1
 SUMMARY VOLUMETRIC BUDGET FOR GSFLOW 
 DATE: 05 05 1991              CUMULATIVE TIME STEP:       5
 MODFLOW STRESS PERIOD      9     CURRENT TIME STEP:     217     ITERATIONS:      79

 -----------------------------------------------------------------------------------

   CUMULATIVE VOLUMES               L**3   RATES FOR THIS TIME STEP           L**3/T
   ------------------                      ------------------------

                                     IN                                         IN
                                     --                                         --
        PRECIPITATION =        1.3510D+07          PRECIPITATION =                  
           STREAMFLOW =                               STREAMFLOW =                  
     GW BOUNDARY FLOW =            100.67       GW BOUNDARY FLOW =              1.27


                                    OUT                                        OUT
                                    ---                                        ---
   EVAPOTRANSPIRATION =        3836414.32     EVAPOTRANSPIRATION =          84775.93
           STREAMFLOW =        4526687.75             STREAMFLOW =          81318.87
     GW BOUNDARY FLOW =           7742.98       GW BOUNDARY FLOW =             35.35

   INFLOWS - OUTFLOWS =        5138963.75     INFLOWS - OUTFLOWS =        -166128.88
             --------                                   --------

 TOTAL STORAGE CHANGE =        5128316.82         STORAGE CHANGE =        -160259.90
       --------------                             --------------
         LAND SURFACE =        2105621.17           LAND SURFACE =        -166214.31
            SOIL ZONE =        5594914.78              SOIL ZONE =           -965.80
     UNSATURATED ZONE =       -3095096.97       UNSATURATED ZONE =           6583.57
       SATURATED ZONE =         522874.47         SATURATED ZONE =            336.58

 OVERALL BUDGET ERROR =          10646.93           BUDGET ERROR =          -5868.97

  ***WARNING, FLUX RATES OFF > 3%

  PERCENT DISCREPANCY =              0.08    PERCENT DISCREPANCY =             -3.60



1
 SUMMARY VOLUMETRIC BUDGET FOR GSFLOW 
 DATE: 05 12 1991              CUMULATIVE TIME STEP:      12
 MODFLOW STRESS PERIOD      9     CURRENT TIME STEP:     224     ITERATIONS:       6

 -----------------------------------------------------------------------------------

   CUMULATIVE VOLUMES               L**3   RATES FOR THIS TIME STEP           L**3/T
   ------------------                      ------------------------

                                     IN                                         IN
                                     --                                         --
        PRECIPITATION =        1.4029D+07          PRECIPITATION =                  
           STREAMFLOW =                               STREAMFLOW =                  
     GW BOUNDARY FLOW =            109.73       GW BOUNDARY FLOW =              1.31


                                    OUT                                        OUT
                                    ---                                        ---
   EVAPOTRANSPIRATION =        4206179.40     EVAPOTRANSPIRATION =          62574.76
           STREAMFLOW =        5077141.81             STREAMFLOW =          81242.45
     GW BOUNDARY FLOW =           7989.46       GW BOUNDARY FLOW =             35.17

   INFLOWS - OUTFLOWS =        4738021.22     INFLOWS - OUTFLOWS =        -143851.07
             --------                                   --------

 TOTAL STORAGE CHANGE =        4766364.40         STORAGE CHANGE =        -138674.29
       --------------                             --------------
         LAND SURFACE =        1671151.52           LAND SURFACE =        -195073.28
            SOIL ZONE =        5625140.11              SOIL ZONE =          50707.44
     UNSATURATED ZONE =       -3040434.40       UNSATURATED ZONE =           7499.30
       SATURATED ZONE =         510503.36         SATURATED ZONE =          -1807.81

 OVERALL BUDGET ERROR =         -28343.17           BUDGET ERROR =          -5176.78

  ***WARNING, FLUX RATES OFF > 3%

  PERCENT DISCREPANCY =             -0.20    PERCENT DISCREPANCY =             -3.66



1
 SUMMARY VOLUMETRIC BUDGET FOR GSFLOW 
 DATE: 05 19 1991              CUMULATIVE TIME STEP:      19
 MODFLOW STRESS PERIOD      9     CURRENT TIME STEP:     231     ITERATIONS:       6

 -----------------------------------------------------------------------------------

   CUMULATIVE VOLUMES               L**3   RATES FOR THIS TIME STEP           L**3/T
   ------------------                      ------------------------

                                     IN                                         IN
                                     --                                         --
        PRECIPITATION =        1.4365D+07          PRECIPITATION =                  
           STREAMFLOW =                               STREAMFLOW =                  
     GW BOUNDARY FLOW =            119.06       GW BOUNDARY FLOW =              1.35


                                    OUT                                        OUT
                                    ---                                        ---
   EVAPOTRANSPIRATION =        4606090.96     EVAPOTRANSPIRATION =          17977.42
           STREAMFLOW =        5621767.04             STREAMFLOW =          70504.77
     GW BOUNDARY FLOW =           8234.65       GW BOUNDARY FLOW =             34.86

   INFLOWS - OUTFLOWS =        4129404.72     INFLOWS - OUTFLOWS =         -88515.70
             --------                                   --------

 TOTAL STORAGE CHANGE =        4200073.90         STORAGE CHANGE =         -81672.27
       --------------                             --------------
         LAND SURFACE =        1131549.54           LAND SURFACE =         -21030.92
            SOIL ZONE =        5556529.15              SOIL ZONE =         -65341.22
     UNSATURATED ZONE =       -2987167.90       UNSATURATED ZONE =           6600.23
       SATURATED ZONE =         499158.87         SATURATED ZONE =          -1900.43

 OVERALL BUDGET ERROR =         -70669.18           BUDGET ERROR =          -6843.43

  ***WARNING, FLUX RATES OFF > 3%

  PERCENT DISCREPANCY =             -0.49    PERCENT DISCREPANCY =             -8.04



1
 SUMMARY VOLUMETRIC BUDGET FOR GSFLOW 
 DATE: 05 26 1991              CUMULATIVE TIME STEP:      26
 MODFLOW STRESS PERIOD      9     CURRENT TIME STEP:     238     ITERATIONS:       6

 -----------------------------------------------------------------------------------

   CUMULATIVE VOLUMES               L**3   RATES FOR THIS TIME STEP           L**3/T
   ------------------                      ------------------------

                                     IN                                         IN
                                     --                                         --
        PRECIPITATION =        1.4426D+07          PRECIPITATION =                  
           STREAMFLOW =                               STREAMFLOW =                  
     GW BOUNDARY FLOW =            128.66       GW BOUNDARY FLOW =              1.39


                                    OUT                                        OUT
                                    ---                                        ---
   EVAPOTRANSPIRATION =        5253111.09     EVAPOTRANSPIRATION =          71052.75
           STREAMFLOW =        6068898.93             STREAMFLOW =          51566.71
     GW BOUNDARY FLOW =           8477.34       GW BOUNDARY FLOW =             34.42

   INFLOWS - OUTFLOWS =        3096138.91     INFLOWS - OUTFLOWS =        -122652.49
             --------                                   --------

 TOTAL STORAGE CHANGE =        3206100.68         STORAGE CHANGE =        -118230.36
       --------------                             --------------
         LAND SURFACE =         596309.92           LAND SURFACE =         -39567.86
            SOIL ZONE =        5074019.35              SOIL ZONE =         -79727.22
     UNSATURATED ZONE =       -2949388.48       UNSATURATED ZONE =           3199.00
       SATURATED ZONE =         485155.21         SATURATED ZONE =          -2134.35

 OVERALL BUDGET ERROR =        -109961.76           BUDGET ERROR =          -4422.13

  ***WARNING, FLUX RATES OFF > 3%

  PERCENT DISCREPANCY =             -0.76    PERCENT DISCREPANCY =             -3.67



1
 SUMMARY VOLUMETRIC BUDGET FOR GSFLOW 
 DATE: 06 02 1991              CUMULATIVE TIME STEP:       2
 MODFLOW STRESS PERIOD     10     CURRENT TIME STEP:     245     ITERATIONS:       6

 -----------------------------------------------------------------------------------

   CUMULATIVE VOLUMES               L**3   RATES FOR THIS TIME STEP           L**3/T
   ------------------                      ------------------------

                                     IN                                         IN
                                     --                                         --
        PRECIPITATION =        1.4671D+07          PRECIPITATION =                  
           STREAMFLOW =                               STREAMFLOW =                  
     GW BOUNDARY FLOW =            138.54       GW BOUNDARY FLOW =              1.43


                                    OUT                                        OUT
                                    ---                                        ---
   EVAPOTRANSPIRATION =        5797780.02     EVAPOTRANSPIRATION =         119330.20
           STREAMFLOW =        6393927.64             STREAMFLOW =          42595.12
     GW BOUNDARY FLOW =           8717.06       GW BOUNDARY FLOW =             34.12

   INFLOWS - OUTFLOWS =        2470688.61     INFLOWS - OUTFLOWS =        -161958.01
             --------                                   --------

 TOTAL STORAGE CHANGE =        2603316.29         STORAGE CHANGE =        -158365.27
       --------------                             --------------
         LAND SURFACE =         342585.53           LAND SURFACE =         -44718.56
            SOIL ZONE =        4728509.00              SOIL ZONE =        -112373.77
     UNSATURATED ZONE =       -2936630.19       UNSATURATED ZONE =           1163.58
       SATURATED ZONE =         468846.82         SATURATED ZONE =          -2436.58

 OVERALL BUDGET ERROR =        -132627.67           BUDGET ERROR =          -3592.73


  PERCENT DISCREPANCY =             -0.90    PERCENT DISCREPANCY =             -2.24



1
 SUMMARY VOLUMETRIC BUDGET FOR GSFLOW 
 DATE: 06 09 1991              CUMULATIVE TIME STEP:       9
 MODFLOW STRESS PERIOD     10     CURRENT TIME STEP:     252     ITERATIONS:       6

 -----------------------------------------------------------------------------------

   CUMULATIVE VOLUMES               L**3   RATES FOR THIS TIME STEP           L**3/T
   ------------------                      ------------------------

                                     IN                                         IN
                                     --                                         --
        PRECIPITATION =        1.4671D+07          PRECIPITATION =                  
           STREAMFLOW =                               STREAMFLOW =                  
     GW BOUNDARY FLOW =            148.70       GW BOUNDARY FLOW =              1.47


                                    OUT                                        OUT
                                    ---                                        ---
   EVAPOTRANSPIRATION =        6513760.36     EVAPOTRANSPIRATION =         166443.84
           STREAMFLOW =        6632735.32             STREAMFLOW =          28782.35
     GW BOUNDARY FLOW =           8954.24       GW BOUNDARY FLOW =             33.72

   INFLOWS - OUTFLOWS =        1515673.57     INFLOWS - OUTFLOWS =        -195258.44
             --------                                   --------

 TOTAL STORAGE CHANGE =        1664430.72         STORAGE CHANGE =        -193209.24
       --------------                             --------------
         LAND SURFACE =         143816.55           LAND SURFACE =         -32280.14
            SOIL ZONE =        4014521.68              SOIL ZONE =        -155533.28
     UNSATURATED ZONE =       -2942237.79       UNSATURATED ZONE =          -2159.05
       SATURATED ZONE =         448324.71         SATURATED ZONE =          -3236.83

 OVERALL BUDGET ERROR =        -148757.15           BUDGET ERROR =          -2049.21


  PERCENT DISCREPANCY =             -1.01    PERCENT DISCREPANCY =             -1.06



1
 SUMMARY VOLUMETRIC BUDGET FOR GSFLOW 
 DATE: 06 16 1991              CUMULATIVE TIME STEP:      16
 MODFLOW STRESS PERIOD     10     CURRENT TIME STEP:     259     ITERATIONS:       6

 -----------------------------------------------------------------------------------

   CUMULATIVE VOLUMES               L**3   RATES FOR THIS TIME STEP           L**3/T
   ------------------                      ------------------------

                                     IN                                         IN
                                     --                                         --
        PRECIPITATION =        1.4671D+07          PRECIPITATION =                  
           STREAMFLOW =                               STREAMFLOW =                  
     GW BOUNDARY FLOW =            159.16       GW BOUNDARY FLOW =              1.51


                                    OUT                                        OUT
                                    ---                                        ---
   EVAPOTRANSPIRATION =        7472817.58     EVAPOTRANSPIRATION =         108501.82
           STREAMFLOW =        6781604.08             STREAMFLOW =          17830.57
     GW BOUNDARY FLOW =           9187.48       GW BOUNDARY FLOW =             33.19

   INFLOWS - OUTFLOWS =         407524.82     INFLOWS - OUTFLOWS =        -126364.07
             --------                                   --------

 TOTAL STORAGE CHANGE =         565827.09         STORAGE CHANGE =        -125194.96
       --------------                             --------------
         LAND SURFACE =          39366.58           LAND SURFACE =          -6891.90
            SOIL ZONE =        3091718.48              SOIL ZONE =        -104062.55
     UNSATURATED ZONE =       -2985600.73       UNSATURATED ZONE =          -9472.56
       SATURATED ZONE =         420336.74         SATURATED ZONE =          -4768.02

 OVERALL BUDGET ERROR =        -158302.26           BUDGET ERROR =          -1169.10


  PERCENT DISCREPANCY =             -1.07    PERCENT DISCREPANCY =             -0.93



1
 SUMMARY VOLUMETRIC BUDGET FOR GSFLOW 
 DATE: 06 23 1991              CUMULATIVE TIME STEP:      23
 MODFLOW STRESS PERIOD     10     CURRENT TIME STEP:     266     ITERATIONS:       6

 -----------------------------------------------------------------------------------

   CUMULATIVE VOLUMES               L**3   RATES FOR THIS TIME STEP           L**3/T
   ------------------                      ------------------------

                                     IN                                         IN
                                     --                                         --
        PRECIPITATION =        1.4671D+07          PRECIPITATION =                  
           STREAMFLOW =                               STREAMFLOW =                  
     GW BOUNDARY FLOW =            169.93       GW BOUNDARY FLOW =              1.56


                                    OUT                                        OUT
                                    ---                                        ---
   EVAPOTRANSPIRATION =        7953284.93     EVAPOTRANSPIRATION =          34556.31
           STREAMFLOW =        6892080.47             STREAMFLOW =          15264.99
     GW BOUNDARY FLOW =           9418.92       GW BOUNDARY FLOW =             33.01

   INFLOWS - OUTFLOWS =        -183639.59     INFLOWS - OUTFLOWS =         -49852.76
             --------                                   --------

 TOTAL STORAGE CHANGE =         -19732.84         STORAGE CHANGE =         -49396.33
       --------------                             --------------
         LAND SURFACE =          15684.07           LAND SURFACE =          -1546.90
            SOIL ZONE =        2638429.24              SOIL ZONE =         -33871.01
     UNSATURATED ZONE =       -3056859.45       UNSATURATED ZONE =          -8503.93
       SATURATED ZONE =         383006.84         SATURATED ZONE =          -5474.56

 OVERALL BUDGET ERROR =        -163906.75           BUDGET ERROR =           -456.43


  PERCENT DISCREPANCY =             -1.11    PERCENT DISCREPANCY =             -0.92



1
 SUMMARY VOLUMETRIC BUDGET FOR GSFLOW 
 DATE: 06 30 1991              CUMULATIVE TIME STEP:      30
 MODFLOW STRESS PERIOD     10     CURRENT TIME STEP:     273     ITERATIONS:       7

 -----------------------------------------------------------------------------------

[...]
                                    ---                                        ---
   EVAPOTRANSPIRATION =        7.3426D+07     EVAPOTRANSPIRATION =          85138.51
           STREAMFLOW =        7.4655D+07             STREAMFLOW =          13415.18
     GW BOUNDARY FLOW =          51029.85       GW BOUNDARY FLOW =             24.42

   INFLOWS - OUTFLOWS =       -1.4618D+07     INFLOWS - OUTFLOWS =         -98574.72
             --------                                   --------

 TOTAL STORAGE CHANGE =       -1.0558D+07         STORAGE CHANGE =         -97304.69
       --------------                             --------------
         LAND SURFACE =         518159.99           LAND SURFACE =         -24360.57
            SOIL ZONE =        2162216.84              SOIL ZONE =         -59049.88
     UNSATURATED ZONE =          63232.33       UNSATURATED ZONE =          -9075.78
       SATURATED ZONE =       -1.3302D+07         SATURATED ZONE =          -4819.00

 OVERALL BUDGET ERROR =       -4059193.92           BUDGET ERROR =          -1270.03


  PERCENT DISCREPANCY =             -2.78    PERCENT DISCREPANCY =             -1.30



1
 SUMMARY VOLUMETRIC BUDGET FOR GSFLOW 
 DATE: 09 03 1995              CUMULATIVE TIME STEP:       3
 MODFLOW STRESS PERIOD     61     CURRENT TIME STEP:    1799     ITERATIONS:       8

 -----------------------------------------------------------------------------------

   CUMULATIVE VOLUMES               L**3   RATES FOR THIS TIME STEP           L**3/T
   ------------------                      ------------------------

                                     IN                                         IN
                                     --                                         --
        PRECIPITATION =        1.3351D+08          PRECIPITATION =                  
           STREAMFLOW =                               STREAMFLOW =                  
     GW BOUNDARY FLOW =           5626.73       GW BOUNDARY FLOW =              3.48


                                    OUT                                        OUT
                                    ---                                        ---
   EVAPOTRANSPIRATION =        7.4001D+07     EVAPOTRANSPIRATION =          77147.98
           STREAMFLOW =        7.4737D+07             STREAMFLOW =          10645.35
     GW BOUNDARY FLOW =          51199.90       GW BOUNDARY FLOW =             24.21

   INFLOWS - OUTFLOWS =       -1.5275D+07     INFLOWS - OUTFLOWS =         -87814.06
             --------                                   --------

 TOTAL STORAGE CHANGE =       -1.1210D+07         STORAGE CHANGE =         -87465.76
       --------------                             --------------
         LAND SURFACE =         367299.23           LAND SURFACE =         -19252.55
            SOIL ZONE =        1768852.10              SOIL ZONE =         -52086.88
     UNSATURATED ZONE =          -2586.41       UNSATURATED ZONE =          -9525.28
       SATURATED ZONE =       -1.3344D+07         SATURATED ZONE =          -6601.58

 OVERALL BUDGET ERROR =       -4065036.53           BUDGET ERROR =           -348.30


  PERCENT DISCREPANCY =             -2.77    PERCENT DISCREPANCY =             -0.40



1
 SUMMARY VOLUMETRIC BUDGET FOR GSFLOW 
 DATE: 09 10 1995              CUMULATIVE TIME STEP:      10
 MODFLOW STRESS PERIOD     61     CURRENT TIME STEP:    1806     ITERATIONS:       7

 -----------------------------------------------------------------------------------

   CUMULATIVE VOLUMES               L**3   RATES FOR THIS TIME STEP           L**3/T
   ------------------                      ------------------------

                                     IN                                         IN
                                     --                                         --
        PRECIPITATION =        1.3351D+08          PRECIPITATION =                  
           STREAMFLOW =                               STREAMFLOW =                  
     GW BOUNDARY FLOW =           5651.44       GW BOUNDARY FLOW =              3.57


                                    OUT                                        OUT
                                    ---                                        ---
   EVAPOTRANSPIRATION =        7.4435D+07     EVAPOTRANSPIRATION =          58066.69
           STREAMFLOW =        7.4808D+07             STREAMFLOW =           9561.19
     GW BOUNDARY FLOW =          51369.37       GW BOUNDARY FLOW =             24.18

   INFLOWS - OUTFLOWS =       -1.5780D+07     INFLOWS - OUTFLOWS =         -67648.48
             --------                                   --------

 TOTAL STORAGE CHANGE =       -1.1713D+07         STORAGE CHANGE =         -67374.28
       --------------                             --------------
         LAND SURFACE =         267725.61           LAND SURFACE =         -12446.55
            SOIL ZONE =        1472187.67              SOIL ZONE =         -39474.94
     UNSATURATED ZONE =         -66126.24       UNSATURATED ZONE =          -8941.66
       SATURATED ZONE =       -1.3387D+07         SATURATED ZONE =          -6511.67

 OVERALL BUDGET ERROR =       -4067001.94           BUDGET ERROR =           -274.20


  PERCENT DISCREPANCY =             -2.76    PERCENT DISCREPANCY =             -0.41



1
 SUMMARY VOLUMETRIC BUDGET FOR GSFLOW 
 DATE: 09 17 1995              CUMULATIVE TIME STEP:      17
 MODFLOW STRESS PERIOD     61     CURRENT TIME STEP:    1813     ITERATIONS:       7

 -----------------------------------------------------------------------------------

   CUMULATIVE VOLUMES               L**3   RATES FOR THIS TIME STEP           L**3/T
   ------------------                      ------------------------

                                     IN                                         IN
                                     --                                         --
        PRECIPITATION =        1.3351D+08          PRECIPITATION =                  
           STREAMFLOW =                               STREAMFLOW =                  
     GW BOUNDARY FLOW =           5676.79       GW BOUNDARY FLOW =              3.66


                                    OUT                                        OUT
                                    ---                                        ---
   EVAPOTRANSPIRATION =        7.4909D+07     EVAPOTRANSPIRATION =          54476.22
           STREAMFLOW =        7.4864D+07             STREAMFLOW =           7962.07
     GW BOUNDARY FLOW =          51537.86       GW BOUNDARY FLOW =             24.08

   INFLOWS - OUTFLOWS =       -1.6310D+07     INFLOWS - OUTFLOWS =         -62458.71
             --------                                   --------

 TOTAL STORAGE CHANGE =       -1.2241D+07         STORAGE CHANGE =         -62209.11
       --------------                             --------------
         LAND SURFACE =         177960.29           LAND SURFACE =          -9479.42
            SOIL ZONE =        1160299.65              SOIL ZONE =         -35706.54
     UNSATURATED ZONE =        -132545.95       UNSATURATED ZONE =          -9269.07
       SATURATED ZONE =       -1.3447D+07         SATURATED ZONE =          -7754.61

 OVERALL BUDGET ERROR =       -4069151.38           BUDGET ERROR =           -249.60


  PERCENT DISCREPANCY =             -2.75    PERCENT DISCREPANCY =             -0.40



1
 SUMMARY VOLUMETRIC BUDGET FOR GSFLOW 
 DATE: 09 24 1995              CUMULATIVE TIME STEP:      24
 MODFLOW STRESS PERIOD     61     CURRENT TIME STEP:    1820     ITERATIONS:       7

 -----------------------------------------------------------------------------------

   CUMULATIVE VOLUMES               L**3   RATES FOR THIS TIME STEP           L**3/T
   ------------------                      ------------------------

                                     IN                                         IN
                                     --                                         --
        PRECIPITATION =        1.3351D+08          PRECIPITATION =                  
           STREAMFLOW =                               STREAMFLOW =                  
     GW BOUNDARY FLOW =           5702.76       GW BOUNDARY FLOW =              3.75


                                    OUT                                        OUT
                                    ---                                        ---
   EVAPOTRANSPIRATION =        7.5247D+07     EVAPOTRANSPIRATION =          34864.82
           STREAMFLOW =        7.4918D+07             STREAMFLOW =           8165.67
     GW BOUNDARY FLOW =          51706.31       GW BOUNDARY FLOW =             24.11

   INFLOWS - OUTFLOWS =       -1.6703D+07     INFLOWS - OUTFLOWS =         -43050.85
             --------                                   --------

 TOTAL STORAGE CHANGE =       -1.2632D+07         STORAGE CHANGE =         -42829.07
       --------------                             --------------
         LAND SURFACE =         123669.62           LAND SURFACE =          -5454.35
            SOIL ZONE =         939803.21              SOIL ZONE =         -22463.21
     UNSATURATED ZONE =        -193078.07       UNSATURATED ZONE =          -8218.84
       SATURATED ZONE =       -1.3503D+07         SATURATED ZONE =          -6693.21

 OVERALL BUDGET ERROR =       -4070921.52           BUDGET ERROR =           -221.77


  PERCENT DISCREPANCY =             -2.75    PERCENT DISCREPANCY =             -0.52



1
 SUMMARY VOLUMETRIC BUDGET FOR GSFLOW 
 DATE: 10 01 1995              CUMULATIVE TIME STEP:       1
 MODFLOW STRESS PERIOD     62     CURRENT TIME STEP:    1827     ITERATIONS:       6

 -----------------------------------------------------------------------------------

   CUMULATIVE VOLUMES               L**3   RATES FOR THIS TIME STEP           L**3/T
   ------------------                      ------------------------

                                     IN                                         IN
                                     --                                         --
        PRECIPITATION =        1.3351D+08          PRECIPITATION =                  
           STREAMFLOW =                               STREAMFLOW =                  
     GW BOUNDARY FLOW =           5729.32       GW BOUNDARY FLOW =              3.83


                                    OUT                                        OUT
                                    ---                                        ---
   EVAPOTRANSPIRATION =        7.5385D+07     EVAPOTRANSPIRATION =          20741.62
           STREAMFLOW =        7.4981D+07             STREAMFLOW =           8840.16
     GW BOUNDARY FLOW =          51875.57       GW BOUNDARY FLOW =             24.18

   INFLOWS - OUTFLOWS =       -1.6903D+07     INFLOWS - OUTFLOWS =         -29602.13
             --------                                   --------

 TOTAL STORAGE CHANGE =       -1.2831D+07         STORAGE CHANGE =         -29430.96
       --------------                             --------------
         LAND SURFACE =         100770.58           LAND SURFACE =          -2835.89
            SOIL ZONE =         853524.18              SOIL ZONE =         -13333.33
     UNSATURATED ZONE =        -246111.20       UNSATURATED ZONE =          -7496.81
       SATURATED ZONE =       -1.3540D+07         SATURATED ZONE =          -5765.48

 OVERALL BUDGET ERROR =       -4072092.21           BUDGET ERROR =           -171.17


  PERCENT DISCREPANCY =             -2.74    PERCENT DISCREPANCY =             -0.58



1
 SUMMARY VOLUMETRIC BUDGET FOR GSFLOW 
 DATE: 10 08 1995              CUMULATIVE TIME STEP:       8
 MODFLOW STRESS PERIOD     62     CURRENT TIME STEP:    1834     ITERATIONS:       6

 -----------------------------------------------------------------------------------

   CUMULATIVE VOLUMES               L**3   RATES FOR THIS TIME STEP           L**3/T
   ------------------                      ------------------------

                                     IN                                         IN
                                     --                                         --
        PRECIPITATION =        1.3351D+08          PRECIPITATION =                  
           STREAMFLOW =                               STREAMFLOW =                  
     GW BOUNDARY FLOW =           5756.41       GW BOUNDARY FLOW =              3.90


                                    OUT                                        OUT
                                    ---                                        ---
   EVAPOTRANSPIRATION =        7.5546D+07     EVAPOTRANSPIRATION =          20121.50
           STREAMFLOW =        7.5040D+07             STREAMFLOW =           8529.28
     GW BOUNDARY FLOW =          52044.72       GW BOUNDARY FLOW =             24.18

   INFLOWS - OUTFLOWS =       -1.7124D+07     INFLOWS - OUTFLOWS =         -28671.05
             --------                                   --------

 TOTAL STORAGE CHANGE =       -1.3051D+07         STORAGE CHANGE =         -28496.89
       --------------                             --------------
         LAND SURFACE =          80522.28           LAND SURFACE =          -2457.43
            SOIL ZONE =         751512.96              SOIL ZONE =         -12474.16
     UNSATURATED ZONE =        -298116.31       UNSATURATED ZONE =          -7283.88
       SATURATED ZONE =       -1.3585D+07         SATURATED ZONE =          -6281.96

 OVERALL BUDGET ERROR =       -4073378.63           BUDGET ERROR =           -174.17


  PERCENT DISCREPANCY =             -2.74    PERCENT DISCREPANCY =             -0.61



1
 SUMMARY VOLUMETRIC BUDGET FOR GSFLOW 
 DATE: 10 15 1995              CUMULATIVE TIME STEP:      15
 MODFLOW STRESS PERIOD     62     CURRENT TIME STEP:    1841     ITERATIONS:       6

 -----------------------------------------------------------------------------------

   CUMULATIVE VOLUMES               L**3   RATES FOR THIS TIME STEP           L**3/T
   ------------------                      ------------------------

                                     IN                                         IN
                                     --                                         --
        PRECIPITATION =        1.3351D+08          PRECIPITATION =                  
           STREAMFLOW =                               STREAMFLOW =                  
     GW BOUNDARY FLOW =           5784.01       GW BOUNDARY FLOW =              3.97


                                    OUT                                        OUT
                                    ---                                        ---
   EVAPOTRANSPIRATION =        7.5704D+07     EVAPOTRANSPIRATION =          25266.34
           STREAMFLOW =        7.5098D+07             STREAMFLOW =           7904.83
     GW BOUNDARY FLOW =          52213.81       GW BOUNDARY FLOW =             24.14

   INFLOWS - OUTFLOWS =       -1.7339D+07     INFLOWS - OUTFLOWS =         -33191.34
             --------                                   --------

 TOTAL STORAGE CHANGE =       -1.3265D+07         STORAGE CHANGE =         -32978.01
       --------------                             --------------
         LAND SURFACE =          62088.09           LAND SURFACE =          -2638.24
            SOIL ZONE =         656015.66              SOIL ZONE =         -15136.83
     UNSATURATED ZONE =        -350181.96       UNSATURATED ZONE =          -7603.07
       SATURATED ZONE =       -1.3633D+07         SATURATED ZONE =          -7600.40

 OVERALL BUDGET ERROR =       -4074718.49           BUDGET ERROR =           -213.33


  PERCENT DISCREPANCY =             -2.74    PERCENT DISCREPANCY =             -0.64



1
 SUMMARY VOLUMETRIC BUDGET FOR GSFLOW 
 DATE: 10 22 1995              CUMULATIVE TIME STEP:      22
 MODFLOW STRESS PERIOD     62     CURRENT TIME STEP:    1848     ITERATIONS:       7

 -----------------------------------------------------------------------------------

   CUMULATIVE VOLUMES               L**3   RATES FOR THIS TIME STEP           L**3/T
   ------------------                      ------------------------

                                     IN                                         IN
                                     --                                         --
        PRECIPITATION =        1.3351D+08          PRECIPITATION =                  
           STREAMFLOW =                               STREAMFLOW =                  
     GW BOUNDARY FLOW =           5812.06       GW BOUNDARY FLOW =              4.04


                                    OUT                                        OUT
                                    ---                                        ---
   EVAPOTRANSPIRATION =        7.5846D+07     EVAPOTRANSPIRATION =           5892.96
           STREAMFLOW =        7.5154D+07             STREAMFLOW =           9073.01
     GW BOUNDARY FLOW =          52382.90       GW BOUNDARY FLOW =             24.25

   INFLOWS - OUTFLOWS =       -1.7538D+07     INFLOWS - OUTFLOWS =         -14986.18
             --------                                   --------

 TOTAL STORAGE CHANGE =       -1.3462D+07         STORAGE CHANGE =         -14860.14
       --------------                             --------------
         LAND SURFACE =          48265.31           LAND SURFACE =           -654.57
            SOIL ZONE =         572674.18              SOIL ZONE =          -3439.82
     UNSATURATED ZONE =        -399996.47       UNSATURATED ZONE =          -6203.55
       SATURATED ZONE =       -1.3683D+07         SATURATED ZONE =          -4562.75

 OVERALL BUDGET ERROR =       -4076084.90           BUDGET ERROR =           -126.04


  PERCENT DISCREPANCY =             -2.74    PERCENT DISCREPANCY =             -0.84



1
 SUMMARY VOLUMETRIC BUDGET FOR GSFLOW 
 DATE: 10 29 1995              CUMULATIVE TIME STEP:      29
 MODFLOW STRESS PERIOD     62     CURRENT TIME STEP:    1855     ITERATIONS:       5

 -----------------------------------------------------------------------------------

   CUMULATIVE VOLUMES               L**3   RATES FOR THIS TIME STEP           L**3/T
   ------------------                      ------------------------

                                     IN                                         IN
                                     --                                         --
        PRECIPITATION =        1.3351D+08          PRECIPITATION =                  
           STREAMFLOW =                               STREAMFLOW =                  
     GW BOUNDARY FLOW =           5840.65       GW BOUNDARY FLOW =              4.12


                                    OUT                                        OUT
                                    ---                                        ---
   EVAPOTRANSPIRATION =        7.5931D+07     EVAPOTRANSPIRATION =          14936.09
           STREAMFLOW =        7.5214D+07             STREAMFLOW =           8194.49
     GW BOUNDARY FLOW =          52552.39       GW BOUNDARY FLOW =             24.19

   INFLOWS - OUTFLOWS =       -1.7683D+07     INFLOWS - OUTFLOWS =         -23150.65
             --------                                   --------

 TOTAL STORAGE CHANGE =       -1.3606D+07         STORAGE CHANGE =         -22944.60
       --------------                             --------------
         LAND SURFACE =          42120.00           LAND SURFACE =          -1365.71
            SOIL ZONE =         523243.03              SOIL ZONE =          -8151.02
     UNSATURATED ZONE =        -445375.08       UNSATURATED ZONE =          -6480.22
       SATURATED ZONE =       -1.3726D+07         SATURATED ZONE =          -6948.18

 OVERALL BUDGET ERROR =       -4077389.39           BUDGET ERROR =           -206.06


  PERCENT DISCREPANCY =             -2.73    PERCENT DISCREPANCY =             -0.89



