1
 SUMMARY VOLUMETRIC BUDGET FOR GSFLOW 
 DATE: 10 07 1990              CUMULATIVE TIME STEP:       7
 MODFLOW STRESS PERIOD      2     CURRENT TIME STEP:       7     ITERATIONS:       7

 -----------------------------------------------------------------------------------

   CUMULATIVE VOLUMES               L**3   RATES FOR THIS TIME STEP           L**3/T
   ------------------                      ------------------------

                                     IN                                         IN
                                     --                                         --
        PRECIPITATION =                            PRECIPITATION =                  
           STREAMFLOW =                               STREAMFLOW =                  
     GW BOUNDARY FLOW =                         GW BOUNDARY FLOW =                  


                                    OUT                                        OUT
                                    ---                                        ---
   EVAPOTRANSPIRATION =         381260.02     EVAPOTRANSPIRATION =          12556.96
           STREAMFLOW =          45701.19             STREAMFLOW =           8118.51
     GW BOUNDARY FLOW =            252.78       GW BOUNDARY FLOW =             36.30

   INFLOWS - OUTFLOWS =        -427213.98     INFLOWS - OUTFLOWS =         -20711.78
             --------                                   --------

 TOTAL STORAGE CHANGE =        -425754.73         STORAGE CHANGE =         -20686.20
       --------------                             --------------
         LAND SURFACE =                             LAND SURFACE =                  
            SOIL ZONE =         -33207.68              SOIL ZONE =          -1003.44
     UNSATURATED ZONE =        -499638.97       UNSATURATED ZONE =         -34044.85
       SATURATED ZONE =         107091.92         SATURATED ZONE =          14362.10

 OVERALL BUDGET ERROR =          -1459.25           BUDGET ERROR =            -25.58


  PERCENT DISCREPANCY =             -0.34    PERCENT DISCREPANCY =             -0.12



1
 SUMMARY VOLUMETRIC BUDGET FOR GSFLOW 
 DATE: 10 14 1990              CUMULATIVE TIME STEP:      14
 MODFLOW STRESS PERIOD      2     CURRENT TIME STEP:      14     ITERATIONS:       6

 -----------------------------------------------------------------------------------

   CUMULATIVE VOLUMES               L**3   RATES FOR THIS TIME STEP           L**3/T
   ------------------                      ------------------------

                                     IN                                         IN
                                     --                                         --
        PRECIPITATION =                            PRECIPITATION =                  
           STREAMFLOW =                               STREAMFLOW =                  
     GW BOUNDARY FLOW =                         GW BOUNDARY FLOW =                  


                                    OUT                                        OUT
                                    ---                                        ---
   EVAPOTRANSPIRATION =         659580.42     EVAPOTRANSPIRATION =          42718.77
           STREAMFLOW =         100509.82             STREAMFLOW =           7415.53
     GW BOUNDARY FLOW =            506.62       GW BOUNDARY FLOW =             36.24

   INFLOWS - OUTFLOWS =        -760596.86     INFLOWS - OUTFLOWS =         -50170.54
             --------                                   --------

 TOTAL STORAGE CHANGE =        -758877.53         STORAGE CHANGE =         -50153.26
       --------------                             --------------
         LAND SURFACE =                             LAND SURFACE =                  
            SOIL ZONE =         -57924.16              SOIL ZONE =          -4415.32
     UNSATURATED ZONE =        -873653.89       UNSATURATED ZONE =         -52585.49
       SATURATED ZONE =         172700.51         SATURATED ZONE =           6847.56

 OVERALL BUDGET ERROR =          -1719.33           BUDGET ERROR =            -17.28


  PERCENT DISCREPANCY =             -0.23    PERCENT DISCREPANCY =             -0.03



1
 SUMMARY VOLUMETRIC BUDGET FOR GSFLOW 
 DATE: 10 21 1990              CUMULATIVE TIME STEP:      21
 MODFLOW STRESS PERIOD      2     CURRENT TIME STEP:      21     ITERATIONS:       6

 -----------------------------------------------------------------------------------

   CUMULATIVE VOLUMES               L**3   RATES FOR THIS TIME STEP           L**3/T
   ------------------                      ------------------------

                                     IN                                         IN
                                     --                                         --
        PRECIPITATION =         188432.87          PRECIPITATION =                  
           STREAMFLOW =                               STREAMFLOW =                  
     GW BOUNDARY FLOW =                         GW BOUNDARY FLOW =                  


                                    OUT                                        OUT
                                    ---                                        ---
   EVAPOTRANSPIRATION =         801327.08     EVAPOTRANSPIRATION =          36527.18
           STREAMFLOW =         163528.39             STREAMFLOW =          10135.91
     GW BOUNDARY FLOW =            760.81       GW BOUNDARY FLOW =             36.37

   INFLOWS - OUTFLOWS =        -777183.40     INFLOWS - OUTFLOWS =         -46699.46
             --------                                   --------

 TOTAL STORAGE CHANGE =        -776680.47         STORAGE CHANGE =         -46707.26
       --------------                             --------------
         LAND SURFACE =          15977.62           LAND SURFACE =         -34861.64
            SOIL ZONE =          56435.34              SOIL ZONE =           -456.99
     UNSATURATED ZONE =       -1085935.28       UNSATURATED ZONE =         -22058.56
       SATURATED ZONE =         236841.85         SATURATED ZONE =          10669.94

 OVERALL BUDGET ERROR =           -502.93           BUDGET ERROR =              7.79


  PERCENT DISCREPANCY =             -0.05    PERCENT DISCREPANCY =              0.02



1
 SUMMARY VOLUMETRIC BUDGET FOR GSFLOW 
 DATE: 10 28 1990              CUMULATIVE TIME STEP:      28
 MODFLOW STRESS PERIOD      2     CURRENT TIME STEP:      28     ITERATIONS:       7

 -----------------------------------------------------------------------------------

   CUMULATIVE VOLUMES               L**3   RATES FOR THIS TIME STEP           L**3/T
   ------------------                      ------------------------

                                     IN                                         IN
                                     --                                         --
        PRECIPITATION =         188432.87          PRECIPITATION =                  
           STREAMFLOW =                               STREAMFLOW =                  
     GW BOUNDARY FLOW =                         GW BOUNDARY FLOW =                  


                                    OUT                                        OUT
                                    ---                                        ---
   EVAPOTRANSPIRATION =         925953.82     EVAPOTRANSPIRATION =          11158.26
           STREAMFLOW =         225102.26             STREAMFLOW =           8986.71
     GW BOUNDARY FLOW =           1013.99       GW BOUNDARY FLOW =             36.13

   INFLOWS - OUTFLOWS =        -963637.20     INFLOWS - OUTFLOWS =         -20181.10
             --------                                   --------

 TOTAL STORAGE CHANGE =        -963125.11         STORAGE CHANGE =         -20179.74
       --------------                             --------------
         LAND SURFACE =                             LAND SURFACE =                  
            SOIL ZONE =          28184.59              SOIL ZONE =          -3308.47
     UNSATURATED ZONE =       -1270579.78       UNSATURATED ZONE =         -23164.50
       SATURATED ZONE =         279270.08         SATURATED ZONE =           6293.23

 OVERALL BUDGET ERROR =           -512.10           BUDGET ERROR =             -1.36


  PERCENT DISCREPANCY =             -0.04    PERCENT DISCREPANCY =             -0.01



1
 SUMMARY VOLUMETRIC BUDGET FOR GSFLOW 
 DATE: 11 04 1990              CUMULATIVE TIME STEP:       4
 MODFLOW STRESS PERIOD      3     CURRENT TIME STEP:      35     ITERATIONS:       6

 -----------------------------------------------------------------------------------

   CUMULATIVE VOLUMES               L**3   RATES FOR THIS TIME STEP           L**3/T
   ------------------                      ------------------------

                                     IN                                         IN
                                     --                                         --
        PRECIPITATION =         703113.06          PRECIPITATION =                  
           STREAMFLOW =                               STREAMFLOW =                  
     GW BOUNDARY FLOW =                         GW BOUNDARY FLOW =                  


                                    OUT                                        OUT
                                    ---                                        ---
   EVAPOTRANSPIRATION =         984978.37     EVAPOTRANSPIRATION =          25494.02
           STREAMFLOW =         296227.76             STREAMFLOW =          10651.40
     GW BOUNDARY FLOW =           1267.05       GW BOUNDARY FLOW =             36.13

   INFLOWS - OUTFLOWS =        -579360.12     INFLOWS - OUTFLOWS =         -36181.55
             --------                                   --------

 TOTAL STORAGE CHANGE =        -583777.19         STORAGE CHANGE =         -37451.74
       --------------                             --------------
         LAND SURFACE =          71009.70           LAND SURFACE =         -84159.07
            SOIL ZONE =         421261.68              SOIL ZONE =          57445.32
     UNSATURATED ZONE =       -1416447.23       UNSATURATED ZONE =         -20123.21
       SATURATED ZONE =         340398.65         SATURATED ZONE =           9385.22

 OVERALL BUDGET ERROR =           4417.07           BUDGET ERROR =           1270.19

  ***WARNING, FLUX RATES OFF > 3%

  PERCENT DISCREPANCY =              0.34    PERCENT DISCREPANCY =              3.45



1
 SUMMARY VOLUMETRIC BUDGET FOR GSFLOW 
 DATE: 11 11 1990              CUMULATIVE TIME STEP:      11
 MODFLOW STRESS PERIOD      3     CURRENT TIME STEP:      42     ITERATIONS:       6

 -----------------------------------------------------------------------------------

   CUMULATIVE VOLUMES               L**3   RATES FOR THIS TIME STEP           L**3/T
   ------------------                      ------------------------

                                     IN                                         IN
                                     --                                         --
        PRECIPITATION =         703113.06          PRECIPITATION =                  
           STREAMFLOW =                               STREAMFLOW =                  
     GW BOUNDARY FLOW =                         GW BOUNDARY FLOW =                  


                                    OUT                                        OUT
                                    ---                                        ---
   EVAPOTRANSPIRATION =        1057568.49     EVAPOTRANSPIRATION =          12435.72
           STREAMFLOW =         367410.15             STREAMFLOW =           9671.96
     GW BOUNDARY FLOW =           1519.16       GW BOUNDARY FLOW =             35.93

   INFLOWS - OUTFLOWS =        -723384.73     INFLOWS - OUTFLOWS =         -22143.61
             --------                                   --------

 TOTAL STORAGE CHANGE =        -727989.37         STORAGE CHANGE =         -22144.44
       --------------                             --------------
         LAND SURFACE =            295.92           LAND SURFACE =           -859.89
            SOIL ZONE =         438065.86              SOIL ZONE =          -6304.17
     UNSATURATED ZONE =       -1556731.02       UNSATURATED ZONE =         -20016.01
       SATURATED ZONE =         390379.85         SATURATED ZONE =           5035.62

 OVERALL BUDGET ERROR =           4604.64           BUDGET ERROR =              0.83


  PERCENT DISCREPANCY =              0.32    PERCENT DISCREPANCY =              0.00



1
 SUMMARY VOLUMETRIC BUDGET FOR GSFLOW 
 DATE: 11 18 1990              CUMULATIVE TIME STEP:      18
 MODFLOW STRESS PERIOD      3     CURRENT TIME STEP:      49     ITERATIONS:       6

 -----------------------------------------------------------------------------------

   CUMULATIVE VOLUMES               L**3   RATES FOR THIS TIME STEP           L**3/T
   ------------------                      ------------------------

                                     IN                                         IN
                                     --                                         --
        PRECIPITATION =         747883.35          PRECIPITATION =                  
           STREAMFLOW =                               STREAMFLOW =                  
     GW BOUNDARY FLOW =                         GW BOUNDARY FLOW =                  


                                    OUT                                        OUT
                                    ---                                        ---
   EVAPOTRANSPIRATION =        1126256.60     EVAPOTRANSPIRATION =           5352.99
           STREAMFLOW =         439302.41             STREAMFLOW =          10696.21
     GW BOUNDARY FLOW =           1770.47       GW BOUNDARY FLOW =             35.88

   INFLOWS - OUTFLOWS =        -819446.13     INFLOWS - OUTFLOWS =         -16085.09
             --------                                   --------

 TOTAL STORAGE CHANGE =        -824091.89         STORAGE CHANGE =         -16096.58
       --------------                             --------------
         LAND SURFACE =          10077.61           LAND SURFACE =          -4199.79
            SOIL ZONE =         420777.53              SOIL ZONE =           -601.07
     UNSATURATED ZONE =       -1690603.93       UNSATURATED ZONE =         -18691.71
       SATURATED ZONE =         435656.86         SATURATED ZONE =           7395.99

 OVERALL BUDGET ERROR =           4645.76           BUDGET ERROR =             11.49


  PERCENT DISCREPANCY =              0.30    PERCENT DISCREPANCY =              0.07



1
 SUMMARY VOLUMETRIC BUDGET FOR GSFLOW 
 DATE: 11 25 1990              CUMULATIVE TIME STEP:      25
 MODFLOW STRESS PERIOD      3     CURRENT TIME STEP:      56     ITERATIONS:       6

 -----------------------------------------------------------------------------------

   CUMULATIVE VOLUMES               L**3   RATES FOR THIS TIME STEP           L**3/T
   ------------------                      ------------------------

                                     IN                                         IN
                                     --                                         --
        PRECIPITATION =        1009043.38          PRECIPITATION =         186542.88
           STREAMFLOW =                               STREAMFLOW =                  
     GW BOUNDARY FLOW =                         GW BOUNDARY FLOW =                  


                                    OUT                                        OUT
                                    ---                                        ---
   EVAPOTRANSPIRATION =        1186051.40     EVAPOTRANSPIRATION =           3807.63
           STREAMFLOW =         515371.30             STREAMFLOW =          10896.12
     GW BOUNDARY FLOW =           2021.42       GW BOUNDARY FLOW =             35.79

   INFLOWS - OUTFLOWS =        -694400.74     INFLOWS - OUTFLOWS =         171803.33
             --------                                   --------

 TOTAL STORAGE CHANGE =        -701192.66         STORAGE CHANGE =         169950.76
       --------------                             --------------
         LAND SURFACE =          92124.67           LAND SURFACE =          75233.82
            SOIL ZONE =         539870.03              SOIL ZONE =         106287.41
     UNSATURATED ZONE =       -1818684.87       UNSATURATED ZONE =         -17979.99
       SATURATED ZONE =         485497.44         SATURATED ZONE =           6409.52

 OVERALL BUDGET ERROR =           6791.92           BUDGET ERROR =           1852.57


  PERCENT DISCREPANCY =              0.40    PERCENT DISCREPANCY =              1.00



1
 SUMMARY VOLUMETRIC BUDGET FOR GSFLOW 
 DATE: 12 02 1990              CUMULATIVE TIME STEP:       2
 MODFLOW STRESS PERIOD      4     CURRENT TIME STEP:      63     ITERATIONS:       6

 -----------------------------------------------------------------------------------

   CUMULATIVE VOLUMES               L**3   RATES FOR THIS TIME STEP           L**3/T
   ------------------                      ------------------------

                                     IN                                         IN
                                     --                                         --
        PRECIPITATION =        1449284.55          PRECIPITATION =                  
           STREAMFLOW =                               STREAMFLOW =                  
     GW BOUNDARY FLOW =                         GW BOUNDARY FLOW =                  


                                    OUT                                        OUT
                                    ---                                        ---
   EVAPOTRANSPIRATION =        1193619.42     EVAPOTRANSPIRATION =            374.47
           STREAMFLOW =         592689.61             STREAMFLOW =          11085.13
     GW BOUNDARY FLOW =           2271.90       GW BOUNDARY FLOW =             35.77

   INFLOWS - OUTFLOWS =        -339296.38     INFLOWS - OUTFLOWS =         -11495.37
             --------                                   --------

 TOTAL STORAGE CHANGE =        -347202.82         STORAGE CHANGE =         -11508.14
       --------------                             --------------
         LAND SURFACE =         493448.43           LAND SURFACE =           -453.37
            SOIL ZONE =         570444.23              SOIL ZONE =            121.17
     UNSATURATED ZONE =       -1941976.88       UNSATURATED ZONE =         -17319.71
       SATURATED ZONE =         530881.32         SATURATED ZONE =           6143.76

 OVERALL BUDGET ERROR =           7906.43           BUDGET ERROR =             12.77


  PERCENT DISCREPANCY =              0.44    PERCENT DISCREPANCY =              0.11



1
 SUMMARY VOLUMETRIC BUDGET FOR GSFLOW 
 DATE: 12 09 1990              CUMULATIVE TIME STEP:       9
 MODFLOW STRESS PERIOD      4     CURRENT TIME STEP:      70     ITERATIONS:       6

 -----------------------------------------------------------------------------------

   CUMULATIVE VOLUMES               L**3   RATES FOR THIS TIME STEP           L**3/T
   ------------------                      ------------------------

                                     IN                                         IN
                                     --                                         --
        PRECIPITATION =        1449284.55          PRECIPITATION =                  
           STREAMFLOW =                               STREAMFLOW =                  
     GW BOUNDARY FLOW =                         GW BOUNDARY FLOW =                  


                                    OUT                                        OUT
                                    ---                                        ---
   EVAPOTRANSPIRATION =        1270506.90     EVAPOTRANSPIRATION =          13593.72
           STREAMFLOW =         670386.70             STREAMFLOW =          10877.75
     GW BOUNDARY FLOW =           2521.86       GW BOUNDARY FLOW =             35.64

   INFLOWS - OUTFLOWS =        -494130.90     INFLOWS - OUTFLOWS =         -24507.12
             --------                                   --------

 TOTAL STORAGE CHANGE =        -506506.82         STORAGE CHANGE =         -24628.42
       --------------                             --------------
         LAND SURFACE =          66382.65           LAND SURFACE =         -46525.52
            SOIL ZONE =         919910.08              SOIL ZONE =          34651.30
     UNSATURATED ZONE =       -2060188.73       UNSATURATED ZONE =         -16540.83
       SATURATED ZONE =         567389.06         SATURATED ZONE =           3786.62

 OVERALL BUDGET ERROR =          12375.92           BUDGET ERROR =            121.30


  PERCENT DISCREPANCY =              0.63    PERCENT DISCREPANCY =              0.49



1
 SUMMARY VOLUMETRIC BUDGET FOR GSFLOW 
 DATE: 12 16 1990              CUMULATIVE TIME STEP:      16
 MODFLOW STRESS PERIOD      4     CURRENT TIME STEP:      77     ITERATIONS:       6

 -----------------------------------------------------------------------------------

   CUMULATIVE VOLUMES               L**3   RATES FOR THIS TIME STEP           L**3/T
   ------------------                      ------------------------

                                     IN                                         IN
                                     --                                         --
        PRECIPITATION =        1804962.84          PRECIPITATION =                  
           STREAMFLOW =                               STREAMFLOW =                  
     GW BOUNDARY FLOW =                         GW BOUNDARY FLOW =                  


                                    OUT                                        OUT
                                    ---                                        ---
   EVAPOTRANSPIRATION =        1298787.35     EVAPOTRANSPIRATION =                  
           STREAMFLOW =         750127.83             STREAMFLOW =          11525.34
     GW BOUNDARY FLOW =           2771.27       GW BOUNDARY FLOW =             35.61

   INFLOWS - OUTFLOWS =        -246723.61     INFLOWS - OUTFLOWS =         -11560.95
             --------                                   --------

 TOTAL STORAGE CHANGE =        -261395.78         STORAGE CHANGE =         -11576.69
       --------------                             --------------
         LAND SURFACE =         256077.35           LAND SURFACE =                  
            SOIL ZONE =        1058067.86              SOIL ZONE =            -28.47
     UNSATURATED ZONE =       -2173944.51       UNSATURATED ZONE =         -15998.81
       SATURATED ZONE =         598403.37         SATURATED ZONE =           4450.58

 OVERALL BUDGET ERROR =          14672.17           BUDGET ERROR =             15.74


  PERCENT DISCREPANCY =              0.71    PERCENT DISCREPANCY =              0.14



1
 SUMMARY VOLUMETRIC BUDGET FOR GSFLOW 
 DATE: 12 23 1990              CUMULATIVE TIME STEP:      23
 MODFLOW STRESS PERIOD      4     CURRENT TIME STEP:      84     ITERATIONS:       6

 -----------------------------------------------------------------------------------

   CUMULATIVE VOLUMES               L**3   RATES FOR THIS TIME STEP           L**3/T
   ------------------                      ------------------------

                                     IN                                         IN
                                     --                                         --
        PRECIPITATION =        2276236.55          PRECIPITATION =                  
           STREAMFLOW =                               STREAMFLOW =                  
     GW BOUNDARY FLOW =              0.08       GW BOUNDARY FLOW =              0.04


                                    OUT                                        OUT
                                    ---                                        ---
   EVAPOTRANSPIRATION =        1300161.88     EVAPOTRANSPIRATION =                  
           STREAMFLOW =         831000.23             STREAMFLOW =          11575.37
     GW BOUNDARY FLOW =           3020.30       GW BOUNDARY FLOW =             35.57

   INFLOWS - OUTFLOWS =         142054.23     INFLOWS - OUTFLOWS =         -11610.90
             --------                                   --------

 TOTAL STORAGE CHANGE =         127280.94         STORAGE CHANGE =         -11624.43
       --------------                             --------------
         LAND SURFACE =         725980.65           LAND SURFACE =                  
            SOIL ZONE =        1058210.32              SOIL ZONE =             49.68
     UNSATURATED ZONE =       -2283472.38       UNSATURATED ZONE =         -15400.77
       SATURATED ZONE =         626562.16         SATURATED ZONE =           3726.65

 OVERALL BUDGET ERROR =          14773.29           BUDGET ERROR =             13.53


  PERCENT DISCREPANCY =              0.65    PERCENT DISCREPANCY =              0.12



1
 SUMMARY VOLUMETRIC BUDGET FOR GSFLOW 
 DATE: 12 30 1990              CUMULATIVE TIME STEP:      30
 MODFLOW STRESS PERIOD      4     CURRENT TIME STEP:      91     ITERATIONS:       5

 -----------------------------------------------------------------------------------

   CUMULATIVE VOLUMES               L**3   RATES FOR THIS TIME STEP           L**3/T
   ------------------                      ------------------------

                                     IN                                         IN
                                     --                                         --
        PRECIPITATION =        2276236.55          PRECIPITATION =                  
           STREAMFLOW =                               STREAMFLOW =                  
     GW BOUNDARY FLOW =              0.77       GW BOUNDARY FLOW =              0.14


                                    OUT                                        OUT
                                    ---                                        ---
   EVAPOTRANSPIRATION =        1300914.52     EVAPOTRANSPIRATION =                  
           STREAMFLOW =         912267.54             STREAMFLOW =          11637.34
     GW BOUNDARY FLOW =           3269.40       GW BOUNDARY FLOW =             35.60

   INFLOWS - OUTFLOWS =          59785.85     INFLOWS - OUTFLOWS =         -11672.80
             --------                                   --------

 TOTAL STORAGE CHANGE =          44932.38         STORAGE CHANGE =         -11682.72
       --------------                             --------------
         LAND SURFACE =         725228.16           LAND SURFACE =                  
            SOIL ZONE =        1058757.21              SOIL ZONE =             97.02
     UNSATURATED ZONE =       -2389116.32       UNSATURATED ZONE =         -14859.90
       SATURATED ZONE =         650063.09         SATURATED ZONE =           3080.16

 OVERALL BUDGET ERROR =          14853.47           BUDGET ERROR =              9.92


  PERCENT DISCREPANCY =              0.65    PERCENT DISCREPANCY =              0.08



1
 SUMMARY VOLUMETRIC BUDGET FOR GSFLOW 
 DATE: 01 06 1991              CUMULATIVE TIME STEP:       6
 MODFLOW STRESS PERIOD      5     CURRENT TIME STEP:      98     ITERATIONS:       5

 -----------------------------------------------------------------------------------

   CUMULATIVE VOLUMES               L**3   RATES FOR THIS TIME STEP           L**3/T
   ------------------                      ------------------------

                                     IN                                         IN
                                     --                                         --
        PRECIPITATION =        2276236.55          PRECIPITATION =                  
           STREAMFLOW =                               STREAMFLOW =                  
     GW BOUNDARY FLOW =              2.09       GW BOUNDARY FLOW =              0.22


                                    OUT                                        OUT
                                    ---                                        ---
   EVAPOTRANSPIRATION =        1324183.07     EVAPOTRANSPIRATION =           2582.15
           STREAMFLOW =         994145.25             STREAMFLOW =          11735.33
     GW BOUNDARY FLOW =           3519.27       GW BOUNDARY FLOW =             35.75

   INFLOWS - OUTFLOWS =         -45608.95     INFLOWS - OUTFLOWS =         -14353.01
             --------                                   --------

 TOTAL STORAGE CHANGE =         -62934.12         STORAGE CHANGE =         -14480.24
       --------------                             --------------
         LAND SURFACE =         620283.29           LAND SURFACE =          -6112.33
            SOIL ZONE =        1138702.27              SOIL ZONE =           3504.09
     UNSATURATED ZONE =       -2490792.50       UNSATURATED ZONE =         -14287.21
       SATURATED ZONE =         668872.55         SATURATED ZONE =           2415.20

 OVERALL BUDGET ERROR =          17325.17           BUDGET ERROR =            127.23


  PERCENT DISCREPANCY =              0.74    PERCENT DISCREPANCY =              0.88



1
 SUMMARY VOLUMETRIC BUDGET FOR GSFLOW 
 DATE: 01 13 1991              CUMULATIVE TIME STEP:      13
 MODFLOW STRESS PERIOD      5     CURRENT TIME STEP:     105     ITERATIONS:       6

 -----------------------------------------------------------------------------------

   CUMULATIVE VOLUMES               L**3   RATES FOR THIS TIME STEP           L**3/T
   ------------------                      ------------------------

                                     IN                                         IN
                                     --                                         --
        PRECIPITATION =        2596386.94          PRECIPITATION =          10327.43
           STREAMFLOW =                               STREAMFLOW =                  
     GW BOUNDARY FLOW =              4.02       GW BOUNDARY FLOW =              0.31


                                    OUT                                        OUT
                                    ---                                        ---
   EVAPOTRANSPIRATION =        1383988.81     EVAPOTRANSPIRATION =          16642.49
           STREAMFLOW =        1076402.58             STREAMFLOW =          11683.08
     GW BOUNDARY FLOW =           3769.49       GW BOUNDARY FLOW =             35.73

   INFLOWS - OUTFLOWS =         132230.08     INFLOWS - OUTFLOWS =         -18033.56
             --------                                   --------

 TOTAL STORAGE CHANGE =         109880.47         STORAGE CHANGE =         -19321.74
       --------------                             --------------
         LAND SURFACE =         586364.85           LAND SURFACE =        -135127.18
            SOIL ZONE =        1429930.54              SOIL ZONE =         128530.04
     UNSATURATED ZONE =       -2588409.82       UNSATURATED ZONE =         -13744.49
       SATURATED ZONE =         681994.58         SATURATED ZONE =           1019.88

 OVERALL BUDGET ERROR =          22349.61           BUDGET ERROR =           1288.18

  ***WARNING, FLUX RATES OFF > 3%

  PERCENT DISCREPANCY =              0.86    PERCENT DISCREPANCY =              4.44



1
 SUMMARY VOLUMETRIC BUDGET FOR GSFLOW 
 DATE: 01 20 1991              CUMULATIVE TIME STEP:      20
 MODFLOW STRESS PERIOD      5     CURRENT TIME STEP:     112     ITERATIONS:       5

 -----------------------------------------------------------------------------------

   CUMULATIVE VOLUMES               L**3   RATES FOR THIS TIME STEP           L**3/T
   ------------------                      ------------------------

                                     IN                                         IN
                                     --                                         --
        PRECIPITATION =        2596386.94          PRECIPITATION =                  
           STREAMFLOW =                               STREAMFLOW =                  
     GW BOUNDARY FLOW =              6.55       GW BOUNDARY FLOW =              0.40


                                    OUT                                        OUT
                                    ---                                        ---
   EVAPOTRANSPIRATION =        1452191.06     EVAPOTRANSPIRATION =           1809.90
           STREAMFLOW =        1159440.80             STREAMFLOW =          11892.03
     GW BOUNDARY FLOW =           4019.74       GW BOUNDARY FLOW =             35.75

   INFLOWS - OUTFLOWS =         -19258.10     INFLOWS - OUTFLOWS =         -13737.29
             --------                                   --------

 TOTAL STORAGE CHANGE =         -42658.80         STORAGE CHANGE =         -13746.50
       --------------                             --------------
         LAND SURFACE =         422210.58           LAND SURFACE =           -295.67
            SOIL ZONE =        1526059.44              SOIL ZONE =          -1450.18
     UNSATURATED ZONE =       -2682103.45       UNSATURATED ZONE =         -13164.48
       SATURATED ZONE =         691174.24         SATURATED ZONE =           1163.82

 OVERALL BUDGET ERROR =          23400.70           BUDGET ERROR =              9.22


  PERCENT DISCREPANCY =              0.89    PERCENT DISCREPANCY =              0.07



1
 SUMMARY VOLUMETRIC BUDGET FOR GSFLOW 
 DATE: 01 27 1991              CUMULATIVE TIME STEP:      27
 MODFLOW STRESS PERIOD      5     CURRENT TIME STEP:     119     ITERATIONS:       5

 -----------------------------------------------------------------------------------

   CUMULATIVE VOLUMES               L**3   RATES FOR THIS TIME STEP           L**3/T
   ------------------                      ------------------------

                                     IN                                         IN
                                     --                                         --
        PRECIPITATION =        2596386.94          PRECIPITATION =                  
           STREAMFLOW =                               STREAMFLOW =                  
     GW BOUNDARY FLOW =              9.66       GW BOUNDARY FLOW =              0.48


                                    OUT                                        OUT
                                    ---                                        ---
   EVAPOTRANSPIRATION =        1473165.54     EVAPOTRANSPIRATION =           1215.82
           STREAMFLOW =        1242653.77             STREAMFLOW =          11912.36
     GW BOUNDARY FLOW =           4269.94       GW BOUNDARY FLOW =             35.74

   INFLOWS - OUTFLOWS =        -123692.65     INFLOWS - OUTFLOWS =         -13163.44
             --------                                   --------

 TOTAL STORAGE CHANGE =        -147355.45         STORAGE CHANGE =         -13163.43
       --------------                             --------------
         LAND SURFACE =         394226.38           LAND SURFACE =           -109.80
            SOIL ZONE =        1533951.97              SOIL ZONE =          -1010.09
     UNSATURATED ZONE =       -2772281.65       UNSATURATED ZONE =         -12662.08
       SATURATED ZONE =         696747.40         SATURATED ZONE =            618.53

 OVERALL BUDGET ERROR =          23662.80           BUDGET ERROR =       -4.2573D-03


  PERCENT DISCREPANCY =              0.87    PERCENT DISCREPANCY =             -0.00



1
 SUMMARY VOLUMETRIC BUDGET FOR GSFLOW 
 DATE: 02 03 1991              CUMULATIVE TIME STEP:       3
 MODFLOW STRESS PERIOD      6     CURRENT TIME STEP:     126     ITERATIONS:       6

 -----------------------------------------------------------------------------------

   CUMULATIVE VOLUMES               L**3   RATES FOR THIS TIME STEP           L**3/T
   ------------------                      ------------------------

                                     IN                                         IN
                                     --                                         --
        PRECIPITATION =        3228422.31          PRECIPITATION =          30459.53
           STREAMFLOW =                               STREAMFLOW =                  
     GW BOUNDARY FLOW =             13.31       GW BOUNDARY FLOW =              0.55


                                    OUT                                        OUT
                                    ---                                        ---
   EVAPOTRANSPIRATION =        1571502.37     EVAPOTRANSPIRATION =          20004.14
           STREAMFLOW =        1327370.55             STREAMFLOW =          12213.45
     GW BOUNDARY FLOW =           4520.11       GW BOUNDARY FLOW =             35.74

   INFLOWS - OUTFLOWS =         325042.59     INFLOWS - OUTFLOWS =          -1793.24
             --------                                   --------

 TOTAL STORAGE CHANGE =         294299.05         STORAGE CHANGE =          -2073.27
       --------------                             --------------
         LAND SURFACE =         184727.70           LAND SURFACE =         -28670.24
            SOIL ZONE =        2271735.54              SOIL ZONE =          38954.06
     UNSATURATED ZONE =       -2859278.75       UNSATURATED ZONE =         -12276.89
       SATURATED ZONE =         697114.06         SATURATED ZONE =            -80.21

 OVERALL BUDGET ERROR =          30743.53           BUDGET ERROR =            280.03


  PERCENT DISCREPANCY =              0.96    PERCENT DISCREPANCY =              0.86



1
 SUMMARY VOLUMETRIC BUDGET FOR GSFLOW 
 DATE: 02 10 1991              CUMULATIVE TIME STEP:      10
 MODFLOW STRESS PERIOD      6     CURRENT TIME STEP:     133     ITERATIONS:       5

 -----------------------------------------------------------------------------------

   CUMULATIVE VOLUMES               L**3   RATES FOR THIS TIME STEP           L**3/T
   ------------------                      ------------------------

                                     IN                                         IN
                                     --                                         --
        PRECIPITATION =        3510173.01          PRECIPITATION =                  
           STREAMFLOW =                               STREAMFLOW =                  
     GW BOUNDARY FLOW =             17.49       GW BOUNDARY FLOW =              0.63


                                    OUT                                        OUT
                                    ---                                        ---
   EVAPOTRANSPIRATION =        1736973.76     EVAPOTRANSPIRATION =          25306.38
           STREAMFLOW =        1413315.53             STREAMFLOW =          12149.18
     GW BOUNDARY FLOW =           4770.19       GW BOUNDARY FLOW =             35.72

   INFLOWS - OUTFLOWS =         355131.02     INFLOWS - OUTFLOWS =         -37490.66
             --------                                   --------

 TOTAL STORAGE CHANGE =         321361.18         STORAGE CHANGE =         -37448.47
       --------------                             --------------
         LAND SURFACE =          90050.80           LAND SURFACE =         -12330.62
            SOIL ZONE =        2478890.31              SOIL ZONE =         -12759.19
     UNSATURATED ZONE =       -2942752.28       UNSATURATED ZONE =         -11795.13
       SATURATED ZONE =         695171.75         SATURATED ZONE =           -563.54

 OVERALL BUDGET ERROR =          33769.85           BUDGET ERROR =            -42.19


  PERCENT DISCREPANCY =              0.97    PERCENT DISCREPANCY =             -0.11



1
 SUMMARY VOLUMETRIC BUDGET FOR GSFLOW 
 DATE: 02 17 1991              CUMULATIVE TIME STEP:      17
 MODFLOW STRESS PERIOD      6     CURRENT TIME STEP:     140     ITERATIONS:       5

 -----------------------------------------------------------------------------------

   CUMULATIVE VOLUMES               L**3   RATES FOR THIS TIME STEP           L**3/T
   ------------------                      ------------------------

                                     IN                                         IN
                                     --                                         --
        PRECIPITATION =        3510173.01          PRECIPITATION =                  
           STREAMFLOW =                               STREAMFLOW =                  
     GW BOUNDARY FLOW =             22.16       GW BOUNDARY FLOW =              0.70


                                    OUT                                        OUT
                                    ---                                        ---
   EVAPOTRANSPIRATION =        1977075.36     EVAPOTRANSPIRATION =          23092.48
           STREAMFLOW =        1497990.57             STREAMFLOW =          12098.33
     GW BOUNDARY FLOW =           5020.12       GW BOUNDARY FLOW =             35.68

   INFLOWS - OUTFLOWS =          30109.12     INFLOWS - OUTFLOWS =         -35225.79
             --------                                   --------

 TOTAL STORAGE CHANGE =          -3061.17         STORAGE CHANGE =         -35150.19
       --------------                             --------------
         LAND SURFACE =          18163.73           LAND SURFACE =          -1654.25
            SOIL ZONE =        2312511.05              SOIL ZONE =         -21375.95
     UNSATURATED ZONE =       -3022846.66       UNSATURATED ZONE =         -11095.94
       SATURATED ZONE =         689110.02         SATURATED ZONE =          -1024.06

 OVERALL BUDGET ERROR =          33170.29           BUDGET ERROR =            -75.60


  PERCENT DISCREPANCY =              0.95    PERCENT DISCREPANCY =             -0.21



1
 SUMMARY VOLUMETRIC BUDGET FOR GSFLOW 
 DATE: 02 24 1991              CUMULATIVE TIME STEP:      24
 MODFLOW STRESS PERIOD      6     CURRENT TIME STEP:     147     ITERATIONS:       5

 -----------------------------------------------------------------------------------

   CUMULATIVE VOLUMES               L**3   RATES FOR THIS TIME STEP           L**3/T
   ------------------                      ------------------------

                                     IN                                         IN
                                     --                                         --
        PRECIPITATION =        3510173.01          PRECIPITATION =                  
           STREAMFLOW =                               STREAMFLOW =                  
     GW BOUNDARY FLOW =             27.31       GW BOUNDARY FLOW =              0.76


                                    OUT                                        OUT
                                    ---                                        ---
   EVAPOTRANSPIRATION =        2192235.43     EVAPOTRANSPIRATION =          21916.84
           STREAMFLOW =        1582279.44             STREAMFLOW =          12029.05
     GW BOUNDARY FLOW =           5269.18       GW BOUNDARY FLOW =             35.51

   INFLOWS - OUTFLOWS =        -269583.72     INFLOWS - OUTFLOWS =         -33980.63
             --------                                   --------

 TOTAL STORAGE CHANGE =        -302053.65         STORAGE CHANGE =         -33906.72
       --------------                             --------------
         LAND SURFACE =           6686.42           LAND SURFACE =           -239.07
            SOIL ZONE =        2110421.04              SOIL ZONE =         -21441.64
     UNSATURATED ZONE =       -3098814.00       UNSATURATED ZONE =         -10685.54
       SATURATED ZONE =         679652.12         SATURATED ZONE =          -1540.49

 OVERALL BUDGET ERROR =          32469.93           BUDGET ERROR =            -73.91


  PERCENT DISCREPANCY =              0.86    PERCENT DISCREPANCY =             -0.22



1
 SUMMARY VOLUMETRIC BUDGET FOR GSFLOW 
 DATE: 03 03 1991              CUMULATIVE TIME STEP:       3
 MODFLOW STRESS PERIOD      7     CURRENT TIME STEP:     154     ITERATIONS:       5

 -----------------------------------------------------------------------------------

   CUMULATIVE VOLUMES               L**3   RATES FOR THIS TIME STEP           L**3/T
   ------------------                      ------------------------

                                     IN                                         IN
                                     --                                         --
        PRECIPITATION =        6220189.63          PRECIPITATION =        1243187.24
           STREAMFLOW =                               STREAMFLOW =                  
     GW BOUNDARY FLOW =             32.91       GW BOUNDARY FLOW =              0.83


                                    OUT                                        OUT
                                    ---                                        ---
   EVAPOTRANSPIRATION =        2344424.46     EVAPOTRANSPIRATION =           7987.75
           STREAMFLOW =        1666157.41             STREAMFLOW =          12219.13
     GW BOUNDARY FLOW =           5516.96       GW BOUNDARY FLOW =             35.33

   INFLOWS - OUTFLOWS =        2204123.71     INFLOWS - OUTFLOWS =        1222945.86
             --------                                   --------

 TOTAL STORAGE CHANGE =        2165396.30         STORAGE CHANGE =        1216223.77
       --------------                             --------------
         LAND SURFACE =        2505892.53           LAND SURFACE =        1046737.06
            SOIL ZONE =        2165746.97              SOIL ZONE =         182124.47
     UNSATURATED ZONE =       -3171891.02       UNSATURATED ZONE =         -10260.36
       SATURATED ZONE =         665646.98         SATURATED ZONE =          -2377.42

 OVERALL BUDGET ERROR =          38727.41           BUDGET ERROR =           6722.09


  PERCENT DISCREPANCY =              0.62    PERCENT DISCREPANCY =              0.54



1
 SUMMARY VOLUMETRIC BUDGET FOR GSFLOW 
 DATE: 03 10 1991              CUMULATIVE TIME STEP:      10
 MODFLOW STRESS PERIOD      7     CURRENT TIME STEP:     161     ITERATIONS:       5

 -----------------------------------------------------------------------------------

   CUMULATIVE VOLUMES               L**3   RATES FOR THIS TIME STEP           L**3/T
   ------------------                      ------------------------

                                     IN                                         IN
                                     --                                         --
        PRECIPITATION =        8746030.42          PRECIPITATION =          32888.55
           STREAMFLOW =                               STREAMFLOW =                  
     GW BOUNDARY FLOW =             38.94       GW BOUNDARY FLOW =              0.89


                                    OUT                                        OUT
                                    ---                                        ---
   EVAPOTRANSPIRATION =        2397098.43     EVAPOTRANSPIRATION =           6893.80
           STREAMFLOW =        1801697.75             STREAMFLOW =          18547.41
     GW BOUNDARY FLOW =           5764.98       GW BOUNDARY FLOW =             35.35

   INFLOWS - OUTFLOWS =        4541508.21     INFLOWS - OUTFLOWS =           7412.87
             --------                                   --------

 TOTAL STORAGE CHANGE =        4470241.29         STORAGE CHANGE =           6369.38
       --------------                             --------------
         LAND SURFACE =        3056677.03           LAND SURFACE =          -5526.40
            SOIL ZONE =        3969739.97              SOIL ZONE =          18647.87
     UNSATURATED ZONE =       -3212642.54       UNSATURATED ZONE =          -5079.57
       SATURATED ZONE =         656465.78         SATURATED ZONE =          -1672.55

 OVERALL BUDGET ERROR =          71266.92           BUDGET ERROR =           1043.49

  ***WARNING, FLUX RATES OFF > 3%

  PERCENT DISCREPANCY =              0.82    PERCENT DISCREPANCY =              3.22



1
 SUMMARY VOLUMETRIC BUDGET FOR GSFLOW 
 DATE: 03 17 1991              CUMULATIVE TIME STEP:      17
 MODFLOW STRESS PERIOD      7     CURRENT TIME STEP:     168     ITERATIONS:       6

 -----------------------------------------------------------------------------------

   CUMULATIVE VOLUMES               L**3   RATES FOR THIS TIME STEP           L**3/T
   ------------------                      ------------------------

                                     IN                                         IN
                                     --                                         --
        PRECIPITATION =        9897129.71          PRECIPITATION =         157865.04
           STREAMFLOW =                               STREAMFLOW =                  
     GW BOUNDARY FLOW =             45.40       GW BOUNDARY FLOW =              0.95


                                    OUT                                        OUT
                                    ---                                        ---
   EVAPOTRANSPIRATION =        2418493.66     EVAPOTRANSPIRATION =           6373.61
           STREAMFLOW =        1923727.55             STREAMFLOW =          16931.59
     GW BOUNDARY FLOW =           6011.77       GW BOUNDARY FLOW =             35.18

   INFLOWS - OUTFLOWS =        5548942.14     INFLOWS - OUTFLOWS =         134525.61
             --------                                   --------

 TOTAL STORAGE CHANGE =        5477587.68         STORAGE CHANGE =         134541.66
       --------------                             --------------
         LAND SURFACE =        4188230.79           LAND SURFACE =         152136.56
            SOIL ZONE =        3894506.69              SOIL ZONE =          -9897.72
     UNSATURATED ZONE =       -3248803.06       UNSATURATED ZONE =          -5408.85
       SATURATED ZONE =         643651.99         SATURATED ZONE =          -2288.36

 OVERALL BUDGET ERROR =          71354.46           BUDGET ERROR =            -16.05


  PERCENT DISCREPANCY =              0.72    PERCENT DISCREPANCY =             -0.01



1
 SUMMARY VOLUMETRIC BUDGET FOR GSFLOW 
 DATE: 03 24 1991              CUMULATIVE TIME STEP:      24
 MODFLOW STRESS PERIOD      7     CURRENT TIME STEP:     175     ITERATIONS:       5

 -----------------------------------------------------------------------------------

   CUMULATIVE VOLUMES               L**3   RATES FOR THIS TIME STEP           L**3/T
   ------------------                      ------------------------

                                     IN                                         IN
                                     --                                         --
        PRECIPITATION =        1.1673D+07          PRECIPITATION =        1230031.83
           STREAMFLOW =                               STREAMFLOW =                  
     GW BOUNDARY FLOW =             52.26       GW BOUNDARY FLOW =              1.00


                                    OUT                                        OUT
                                    ---                                        ---
   EVAPOTRANSPIRATION =        2449354.35     EVAPOTRANSPIRATION =           3628.49
           STREAMFLOW =        2040410.02             STREAMFLOW =          16485.95
     GW BOUNDARY FLOW =           6257.40       GW BOUNDARY FLOW =             35.03

   INFLOWS - OUTFLOWS =        7177141.99     INFLOWS - OUTFLOWS =        1209883.38
             --------                                   --------

 TOTAL STORAGE CHANGE =        7105866.49         STORAGE CHANGE =        1210040.89
       --------------                             --------------
         LAND SURFACE =        5933783.02           LAND SURFACE =        1227482.51
            SOIL ZONE =        3832294.43              SOIL ZONE =          -9351.66
     UNSATURATED ZONE =       -3287075.01       UNSATURATED ZONE =          -5552.89
       SATURATED ZONE =         626862.59         SATURATED ZONE =          -2537.11

 OVERALL BUDGET ERROR =          71275.50           BUDGET ERROR =           -157.51


  PERCENT DISCREPANCY =              0.61    PERCENT DISCREPANCY =             -0.01



1
 SUMMARY VOLUMETRIC BUDGET FOR GSFLOW 
 DATE: 03 31 1991              CUMULATIVE TIME STEP:      31
 MODFLOW STRESS PERIOD      7     CURRENT TIME STEP:     182     ITERATIONS:       5

 -----------------------------------------------------------------------------------

   CUMULATIVE VOLUMES               L**3   RATES FOR THIS TIME STEP           L**3/T
   ------------------                      ------------------------

                                     IN                                         IN
                                     --                                         --
        PRECIPITATION =        1.2495D+07          PRECIPITATION =                  
           STREAMFLOW =                               STREAMFLOW =                  
     GW BOUNDARY FLOW =             59.51       GW BOUNDARY FLOW =              1.06


                                    OUT                                        OUT
                                    ---                                        ---
   EVAPOTRANSPIRATION =        2555890.62     EVAPOTRANSPIRATION =          43675.48
           STREAMFLOW =        2158413.29             STREAMFLOW =          18975.39
     GW BOUNDARY FLOW =           6502.14       GW BOUNDARY FLOW =             34.95

   INFLOWS - OUTFLOWS =        7774578.75     INFLOWS - OUTFLOWS =         -62684.76
             --------                                   --------

 TOTAL STORAGE CHANGE =        7699392.36         STORAGE CHANGE =         -65656.89
       --------------                             --------------
         LAND SURFACE =        6553217.20           LAND SURFACE =        -112248.22
            SOIL ZONE =        3863349.01              SOIL ZONE =          54505.58
     UNSATURATED ZONE =       -3324724.11       UNSATURATED ZONE =          -4869.38
       SATURATED ZONE =         607548.59         SATURATED ZONE =          -3044.90

 OVERALL BUDGET ERROR =          75186.39           BUDGET ERROR =           2972.13

  ***WARNING, FLUX RATES OFF > 3%

  PERCENT DISCREPANCY =              0.60    PERCENT DISCREPANCY =              4.63



1
 SUMMARY VOLUMETRIC BUDGET FOR GSFLOW 
 DATE: 04 07 1991              CUMULATIVE TIME STEP:       7
 MODFLOW STRESS PERIOD      8     CURRENT TIME STEP:     189     ITERATIONS:       8

 -----------------------------------------------------------------------------------

   CUMULATIVE VOLUMES               L**3   RATES FOR THIS TIME STEP           L**3/T
   ------------------                      ------------------------

                                     IN                                         IN
                                     --                                         --
        PRECIPITATION =        1.3018D+07          PRECIPITATION =                  
           STREAMFLOW =                               STREAMFLOW =                  
     GW BOUNDARY FLOW =             67.14       GW BOUNDARY FLOW =              1.11


                                    OUT                                        OUT
                                    ---                                        ---
   EVAPOTRANSPIRATION =        2839072.29     EVAPOTRANSPIRATION =          13548.64
           STREAMFLOW =        2420421.64             STREAMFLOW =          52013.73
     GW BOUNDARY FLOW =           6748.70       GW BOUNDARY FLOW =             35.44

   INFLOWS - OUTFLOWS =        7751561.25     INFLOWS - OUTFLOWS =         -65596.71
             --------                                   --------

 TOTAL STORAGE CHANGE =        7643167.15         STORAGE CHANGE =         -66052.67
       --------------                             --------------
         LAND SURFACE =        5033740.13           LAND SURFACE =         -59134.98
            SOIL ZONE =        5338241.00              SOIL ZONE =         -12090.75
     UNSATURATED ZONE =       -3319802.27       UNSATURATED ZONE =           6685.81
       SATURATED ZONE =         590986.36         SATURATED ZONE =          -1512.79

 OVERALL BUDGET ERROR =         108394.10           BUDGET ERROR =            455.96


  PERCENT DISCREPANCY =              0.84    PERCENT DISCREPANCY =              0.69



1
 SUMMARY VOLUMETRIC BUDGET FOR GSFLOW 
 DATE: 04 14 1991              CUMULATIVE TIME STEP:      14
 MODFLOW STRESS PERIOD      8     CURRENT TIME STEP:     196     ITERATIONS:       7

 -----------------------------------------------------------------------------------

   CUMULATIVE VOLUMES               L**3   RATES FOR THIS TIME STEP           L**3/T
   ------------------                      ------------------------

                                     IN                                         IN
                                     --                                         --
        PRECIPITATION =        1.3018D+07          PRECIPITATION =                  
           STREAMFLOW =                               STREAMFLOW =                  
     GW BOUNDARY FLOW =             75.09       GW BOUNDARY FLOW =              1.16


                                    OUT                                        OUT
                                    ---                                        ---
   EVAPOTRANSPIRATION =        3008895.75     EVAPOTRANSPIRATION =          38932.87
           STREAMFLOW =        2833452.17             STREAMFLOW =          63940.23
     GW BOUNDARY FLOW =           6996.93       GW BOUNDARY FLOW =             35.48

   INFLOWS - OUTFLOWS =        7168466.97     INFLOWS - OUTFLOWS =        -102907.42
             --------                                   --------

 TOTAL STORAGE CHANGE =        7064832.09         STORAGE CHANGE =        -103563.30
       --------------                             --------------
         LAND SURFACE =        4429762.56           LAND SURFACE =        -170838.53
            SOIL ZONE =        5330656.20              SOIL ZONE =          62759.57
     UNSATURATED ZONE =       -3272100.78       UNSATURATED ZONE =           6561.07
       SATURATED ZONE =         576511.87         SATURATED ZONE =          -2045.46

 OVERALL BUDGET ERROR =         103634.88           BUDGET ERROR =            655.87


  PERCENT DISCREPANCY =              0.80    PERCENT DISCREPANCY =              0.64



1
 SUMMARY VOLUMETRIC BUDGET FOR GSFLOW 
 DATE: 04 21 1991              CUMULATIVE TIME STEP:      21
 MODFLOW STRESS PERIOD      8     CURRENT TIME STEP:     203     ITERATIONS:       7

 -----------------------------------------------------------------------------------

   CUMULATIVE VOLUMES               L**3   RATES FOR THIS TIME STEP           L**3/T
   ------------------                      ------------------------

                                     IN                                         IN
                                     --                                         --
        PRECIPITATION =        1.3034D+07          PRECIPITATION =                  
           STREAMFLOW =                               STREAMFLOW =                  
     GW BOUNDARY FLOW =             83.35       GW BOUNDARY FLOW =              1.20


                                    OUT                                        OUT
                                    ---                                        ---
   EVAPOTRANSPIRATION =        3240565.50     EVAPOTRANSPIRATION =          43438.50
           STREAMFLOW =        3338439.64             STREAMFLOW =          84958.03
     GW BOUNDARY FLOW =           7245.61       GW BOUNDARY FLOW =             35.65

   INFLOWS - OUTFLOWS =        6447894.70     INFLOWS - OUTFLOWS =        -128430.98
             --------                                   --------

 TOTAL STORAGE CHANGE =        6355977.80         STORAGE CHANGE =        -125976.48
       --------------                             --------------
         LAND SURFACE =        3339485.92           LAND SURFACE =        -212222.76
            SOIL ZONE =        5673066.11              SOIL ZONE =          78804.16
     UNSATURATED ZONE =       -3221116.95       UNSATURATED ZONE =           8999.83
       SATURATED ZONE =         564540.12         SATURATED ZONE =          -1557.76

 OVERALL BUDGET ERROR =          91916.90           BUDGET ERROR =          -2454.50


  PERCENT DISCREPANCY =              0.71    PERCENT DISCREPANCY =             -1.93



1
 SUMMARY VOLUMETRIC BUDGET FOR GSFLOW 
 DATE: 04 28 1991              CUMULATIVE TIME STEP:      28
 MODFLOW STRESS PERIOD      8     CURRENT TIME STEP:     210     ITERATIONS:       6

 -----------------------------------------------------------------------------------

   CUMULATIVE VOLUMES               L**3   RATES FOR THIS TIME STEP           L**3/T
   ------------------                      ------------------------

                                     IN                                         IN
                                     --                                         --
        PRECIPITATION =        1.3303D+07          PRECIPITATION =                  
           STREAMFLOW =                               STREAMFLOW =                  
     GW BOUNDARY FLOW =             91.88       GW BOUNDARY FLOW =              1.24


                                    OUT                                        OUT
                                    ---                                        ---
   EVAPOTRANSPIRATION =        3487412.51     EVAPOTRANSPIRATION =          55254.99
           STREAMFLOW =        3952786.15             STREAMFLOW =          84872.44
     GW BOUNDARY FLOW =           7494.95       GW BOUNDARY FLOW =             35.54

   INFLOWS - OUTFLOWS =        5855828.77     INFLOWS - OUTFLOWS =        -140161.73
             --------                                   --------

 TOTAL STORAGE CHANGE =        5802852.51         STORAGE CHANGE =        -133687.97
       --------------                             --------------
         LAND SURFACE =        2758651.59           LAND SURFACE =        -113752.45
            SOIL ZONE =        5645187.74              SOIL ZONE =         -27077.11
     UNSATURATED ZONE =       -3157356.18       UNSATURATED ZONE =           8287.44
       SATURATED ZONE =         556366.39         SATURATED ZONE =          -1145.91

 OVERALL BUDGET ERROR =          52976.26           BUDGET ERROR =          -6473.76

  ***WARNING, FLUX RATES OFF > 3%

  PERCENT DISCREPANCY =              0.40    PERCENT DISCREPANCY =             -4.73



1
 SUMMARY VOLUMETRIC BUDGET FOR GSFLOW 
 DATE: 05 05 1991              CUMULATIVE TIME STEP:       5
 MODFLOW STRESS PERIOD      9     CURRENT TIME STEP:     217     ITERATIONS:     117

 -----------------------------------------------------------------------------------

   CUMULATIVE VOLUMES               L**3   RATES FOR THIS TIME STEP           L**3/T
   ------------------                      ------------------------

                                     IN                                         IN
                                     --                                         --
        PRECIPITATION =        1.3510D+07          PRECIPITATION =                  
           STREAMFLOW =                               STREAMFLOW =                  
     GW BOUNDARY FLOW =            100.68       GW BOUNDARY FLOW =              1.27


                                    OUT                                        OUT
                                    ---                                        ---
   EVAPOTRANSPIRATION =        3836328.21     EVAPOTRANSPIRATION =          84775.93
           STREAMFLOW =        4511075.29             STREAMFLOW =          81080.60
     GW BOUNDARY FLOW =           7742.74       GW BOUNDARY FLOW =             35.35

   INFLOWS - OUTFLOWS =        5154662.57     INFLOWS - OUTFLOWS =        -165890.61
             --------                                   --------

 TOTAL STORAGE CHANGE =        5143930.28         STORAGE CHANGE =        -160023.65
       --------------                             --------------
         LAND SURFACE =        2105621.15           LAND SURFACE =        -166214.31
            SOIL ZONE =        5594826.59              SOIL ZONE =           -962.99
     UNSATURATED ZONE =       -3104320.80       UNSATURATED ZONE =           6527.49
       SATURATED ZONE =         547799.96         SATURATED ZONE =            626.11

 OVERALL BUDGET ERROR =          10732.29           BUDGET ERROR =          -5866.96

  ***WARNING, FLUX RATES OFF > 3%

  PERCENT DISCREPANCY =              0.08    PERCENT DISCREPANCY =             -3.60



1
 SUMMARY VOLUMETRIC BUDGET FOR GSFLOW 
 DATE: 05 12 1991              CUMULATIVE TIME STEP:      12
 MODFLOW STRESS PERIOD      9     CURRENT TIME STEP:     224     ITERATIONS:       6

 -----------------------------------------------------------------------------------

   CUMULATIVE VOLUMES               L**3   RATES FOR THIS TIME STEP           L**3/T
   ------------------                      ------------------------

                                     IN                                         IN
                                     --                                         --
        PRECIPITATION =        1.4029D+07          PRECIPITATION =                  
           STREAMFLOW =                               STREAMFLOW =                  
     GW BOUNDARY FLOW =            109.74       GW BOUNDARY FLOW =              1.31


                                    OUT                                        OUT
                                    ---                                        ---
   EVAPOTRANSPIRATION =        4206093.29     EVAPOTRANSPIRATION =          62574.76
           STREAMFLOW =        5059108.19             STREAMFLOW =          80919.45
     GW BOUNDARY FLOW =           7989.19       GW BOUNDARY FLOW =             35.16

   INFLOWS - OUTFLOWS =        4756141.23     INFLOWS - OUTFLOWS =        -143528.06
             --------                                   --------

 TOTAL STORAGE CHANGE =        4784381.88         STORAGE CHANGE =        -138353.47
       --------------                             --------------
         LAND SURFACE =        1671151.50           LAND SURFACE =        -195073.29
            SOIL ZONE =        5625067.14              SOIL ZONE =          50710.07
     UNSATURATED ZONE =       -3050109.86       UNSATURATED ZONE =           7463.95
       SATURATED ZONE =         538269.30         SATURATED ZONE =          -1454.26

 OVERALL BUDGET ERROR =         -28240.65           BUDGET ERROR =          -5174.59

  ***WARNING, FLUX RATES OFF > 3%

  PERCENT DISCREPANCY =             -0.20    PERCENT DISCREPANCY =             -3.67



1
 SUMMARY VOLUMETRIC BUDGET FOR GSFLOW 
 DATE: 05 19 1991              CUMULATIVE TIME STEP:      19
 MODFLOW STRESS PERIOD      9     CURRENT TIME STEP:     231     ITERATIONS:       6

 -----------------------------------------------------------------------------------

   CUMULATIVE VOLUMES               L**3   RATES FOR THIS TIME STEP           L**3/T
   ------------------                      ------------------------

                                     IN                                         IN
                                     --                                         --
        PRECIPITATION =        1.4365D+07          PRECIPITATION =                  
           STREAMFLOW =                               STREAMFLOW =                  
     GW BOUNDARY FLOW =            119.07       GW BOUNDARY FLOW =              1.35


                                    OUT                                        OUT
                                    ---                                        ---
   EVAPOTRANSPIRATION =        4606004.85     EVAPOTRANSPIRATION =          17977.42
           STREAMFLOW =        5602277.75             STREAMFLOW =          70321.55
     GW BOUNDARY FLOW =           8234.37       GW BOUNDARY FLOW =             34.86

   INFLOWS - OUTFLOWS =        4148980.41     INFLOWS - OUTFLOWS =         -88332.48
             --------                                   --------

 TOTAL STORAGE CHANGE =        4219529.56         STORAGE CHANGE =         -81491.31
       --------------                             --------------
         LAND SURFACE =        1131549.53           LAND SURFACE =         -21030.92
            SOIL ZONE =        5556471.64              SOIL ZONE =         -65338.63
     UNSATURATED ZONE =       -2997108.24       UNSATURATED ZONE =           6541.29
       SATURATED ZONE =         528612.39         SATURATED ZONE =          -1663.10

 OVERALL BUDGET ERROR =         -70549.14           BUDGET ERROR =          -6841.17

  ***WARNING, FLUX RATES OFF > 3%

  PERCENT DISCREPANCY =             -0.49    PERCENT DISCREPANCY =             -8.06



1
 SUMMARY VOLUMETRIC BUDGET FOR GSFLOW 
 DATE: 05 26 1991              CUMULATIVE TIME STEP:      26
 MODFLOW STRESS PERIOD      9     CURRENT TIME STEP:     238     ITERATIONS:       6

 -----------------------------------------------------------------------------------

   CUMULATIVE VOLUMES               L**3   RATES FOR THIS TIME STEP           L**3/T
   ------------------                      ------------------------

                                     IN                                         IN
                                     --                                         --
        PRECIPITATION =        1.4426D+07          PRECIPITATION =                  
           STREAMFLOW =                               STREAMFLOW =                  
     GW BOUNDARY FLOW =            128.67       GW BOUNDARY FLOW =              1.39


                                    OUT                                        OUT
                                    ---                                        ---
   EVAPOTRANSPIRATION =        5253024.97     EVAPOTRANSPIRATION =          71052.75
           STREAMFLOW =        6048233.74             STREAMFLOW =          51410.27
     GW BOUNDARY FLOW =           8477.04       GW BOUNDARY FLOW =             34.42

   INFLOWS - OUTFLOWS =        3116890.53     INFLOWS - OUTFLOWS =        -122496.05
             --------                                   --------

 TOTAL STORAGE CHANGE =        3226719.16         STORAGE CHANGE =        -118075.84
       --------------                             --------------
         LAND SURFACE =         596309.91           LAND SURFACE =         -39567.86
            SOIL ZONE =        5073974.72              SOIL ZONE =         -79726.16
     UNSATURATED ZONE =       -2959703.41       UNSATURATED ZONE =           3157.11
       SATURATED ZONE =         516133.25         SATURATED ZONE =          -1939.00

 OVERALL BUDGET ERROR =        -109828.63           BUDGET ERROR =          -4420.21

  ***WARNING, FLUX RATES OFF > 3%

  PERCENT DISCREPANCY =             -0.76    PERCENT DISCREPANCY =             -3.67



1
 SUMMARY VOLUMETRIC BUDGET FOR GSFLOW 
 DATE: 06 02 1991              CUMULATIVE TIME STEP:       2
 MODFLOW STRESS PERIOD     10     CURRENT TIME STEP:     245     ITERATIONS:       6

 -----------------------------------------------------------------------------------

   CUMULATIVE VOLUMES               L**3   RATES FOR THIS TIME STEP           L**3/T
   ------------------                      ------------------------

                                     IN                                         IN
                                     --                                         --
        PRECIPITATION =        1.4671D+07          PRECIPITATION =                  
           STREAMFLOW =                               STREAMFLOW =                  
     GW BOUNDARY FLOW =            138.55       GW BOUNDARY FLOW =              1.43


                                    OUT                                        OUT
                                    ---                                        ---
   EVAPOTRANSPIRATION =        5797694.04     EVAPOTRANSPIRATION =         119330.19
           STREAMFLOW =        6372285.39             STREAMFLOW =          42490.68
     GW BOUNDARY FLOW =           8716.75       GW BOUNDARY FLOW =             34.12

   INFLOWS - OUTFLOWS =        2492417.17     INFLOWS - OUTFLOWS =        -161853.56
             --------                                   --------

 TOTAL STORAGE CHANGE =        2625046.34         STORAGE CHANGE =        -158182.59
       --------------                             --------------
         LAND SURFACE =         342585.53           LAND SURFACE =         -44718.56
            SOIL ZONE =        4728551.84              SOIL ZONE =        -112332.71
     UNSATURATED ZONE =       -2947165.45       UNSATURATED ZONE =           1120.37
       SATURATED ZONE =         501069.29         SATURATED ZONE =          -2251.75

 OVERALL BUDGET ERROR =        -132629.17           BUDGET ERROR =          -3670.97


  PERCENT DISCREPANCY =             -0.90    PERCENT DISCREPANCY =             -2.29



1
 SUMMARY VOLUMETRIC BUDGET FOR GSFLOW 
 DATE: 06 09 1991              CUMULATIVE TIME STEP:       9
 MODFLOW STRESS PERIOD     10     CURRENT TIME STEP:     252     ITERATIONS:       6

 -----------------------------------------------------------------------------------

   CUMULATIVE VOLUMES               L**3   RATES FOR THIS TIME STEP           L**3/T
   ------------------                      ------------------------

                                     IN                                         IN
                                     --                                         --
        PRECIPITATION =        1.4671D+07          PRECIPITATION =                  
           STREAMFLOW =                               STREAMFLOW =                  
     GW BOUNDARY FLOW =            148.72       GW BOUNDARY FLOW =              1.47


                                    OUT                                        OUT
                                    ---                                        ---
   EVAPOTRANSPIRATION =        6513674.31     EVAPOTRANSPIRATION =         166443.82
           STREAMFLOW =        6610200.69             STREAMFLOW =          28653.08
     GW BOUNDARY FLOW =           8953.92       GW BOUNDARY FLOW =             33.72

   INFLOWS - OUTFLOWS =        1538294.60     INFLOWS - OUTFLOWS =        -195129.15
             --------                                   --------

 TOTAL STORAGE CHANGE =        1687064.56         STORAGE CHANGE =        -193084.74
       --------------                             --------------
         LAND SURFACE =         143816.54           LAND SURFACE =         -32280.14
            SOIL ZONE =        4014519.87              SOIL ZONE =        -155539.84
     UNSATURATED ZONE =       -2953161.27       UNSATURATED ZONE =          -2223.59
       SATURATED ZONE =         481883.84         SATURATED ZONE =          -3041.23

 OVERALL BUDGET ERROR =        -148769.96           BUDGET ERROR =          -2044.41


  PERCENT DISCREPANCY =             -1.01    PERCENT DISCREPANCY =             -1.05



1
 SUMMARY VOLUMETRIC BUDGET FOR GSFLOW 
 DATE: 06 16 1991              CUMULATIVE TIME STEP:      16
 MODFLOW STRESS PERIOD     10     CURRENT TIME STEP:     259     ITERATIONS:       6

 -----------------------------------------------------------------------------------

   CUMULATIVE VOLUMES               L**3   RATES FOR THIS TIME STEP           L**3/T
   ------------------                      ------------------------

                                     IN                                         IN
                                     --                                         --
        PRECIPITATION =        1.4671D+07          PRECIPITATION =                  
           STREAMFLOW =                               STREAMFLOW =                  
     GW BOUNDARY FLOW =            159.18       GW BOUNDARY FLOW =              1.51


                                    OUT                                        OUT
                                    ---                                        ---
   EVAPOTRANSPIRATION =        7472487.16     EVAPOTRANSPIRATION =         108400.83
           STREAMFLOW =        6758240.10             STREAMFLOW =          17723.09
     GW BOUNDARY FLOW =           9187.12       GW BOUNDARY FLOW =             33.18

   INFLOWS - OUTFLOWS =         431219.60     INFLOWS - OUTFLOWS =        -126155.59
             --------                                   --------

 TOTAL STORAGE CHANGE =         589128.52         STORAGE CHANGE =        -125140.68
       --------------                             --------------
         LAND SURFACE =          39366.58           LAND SURFACE =          -6891.90
            SOIL ZONE =        3091586.37              SOIL ZONE =        -104102.80
     UNSATURATED ZONE =       -2997064.59       UNSATURATED ZONE =          -9564.45
       SATURATED ZONE =         455234.13         SATURATED ZONE =          -4581.59

 OVERALL BUDGET ERROR =        -157908.92           BUDGET ERROR =          -1014.91


  PERCENT DISCREPANCY =             -1.07    PERCENT DISCREPANCY =             -0.81



1
 SUMMARY VOLUMETRIC BUDGET FOR GSFLOW 
 DATE: 06 23 1991              CUMULATIVE TIME STEP:      23
 MODFLOW STRESS PERIOD     10     CURRENT TIME STEP:     266     ITERATIONS:       6

 -----------------------------------------------------------------------------------

   CUMULATIVE VOLUMES               L**3   RATES FOR THIS TIME STEP           L**3/T
   ------------------                      ------------------------

                                     IN                                         IN
                                     --                                         --
        PRECIPITATION =        1.4671D+07          PRECIPITATION =                  
           STREAMFLOW =                               STREAMFLOW =                  
     GW BOUNDARY FLOW =            169.95       GW BOUNDARY FLOW =              1.56


                                    OUT                                        OUT
                                    ---                                        ---
   EVAPOTRANSPIRATION =        7952064.85     EVAPOTRANSPIRATION =          34450.05
           STREAMFLOW =        6867816.48             STREAMFLOW =          15158.35
     GW BOUNDARY FLOW =           9418.52       GW BOUNDARY FLOW =             33.01

   INFLOWS - OUTFLOWS =        -158155.09     INFLOWS - OUTFLOWS =         -49639.85
             --------                                   --------

 TOTAL STORAGE CHANGE =           4050.99         STORAGE CHANGE =         -49363.08
       --------------                             --------------
         LAND SURFACE =          15682.85           LAND SURFACE =          -1548.12
            SOIL ZONE =        2638021.24              SOIL ZONE =         -33919.05
     UNSATURATED ZONE =       -3068777.05       UNSATURATED ZONE =          -8598.64
       SATURATED ZONE =         419117.49         SATURATED ZONE =          -5297.34

 OVERALL BUDGET ERROR =        -162206.09           BUDGET ERROR =           -276.76


  PERCENT DISCREPANCY =             -1.10    PERCENT DISCREPANCY =             -0.56



1
 SUMMARY VOLUMETRIC BUDGET FOR GSFLOW 
 DATE: 06 30 1991              CUMULATIVE TIME STEP:      30
 MODFLOW STRESS PERIOD     10     CURRENT TIME STEP:     273     ITERATIONS:       8

 -----------------------------------------------------------------------------------

[...]
                                    ---                                        ---
   EVAPOTRANSPIRATION =        7.3037D+07     EVAPOTRANSPIRATION =          84501.37
           STREAMFLOW =        7.4582D+07             STREAMFLOW =          13380.86
     GW BOUNDARY FLOW =          51040.16       GW BOUNDARY FLOW =             24.41

   INFLOWS - OUTFLOWS =       -1.4156D+07     INFLOWS - OUTFLOWS =         -97903.26
             --------                                   --------

 TOTAL STORAGE CHANGE =       -1.0510D+07         STORAGE CHANGE =         -97398.48
       --------------                             --------------
         LAND SURFACE =         518159.97           LAND SURFACE =         -24360.57
            SOIL ZONE =        2161372.01              SOIL ZONE =         -59111.66
     UNSATURATED ZONE =          41137.90       UNSATURATED ZONE =          -9067.98
       SATURATED ZONE =       -1.3231D+07         SATURATED ZONE =          -4858.80

 OVERALL BUDGET ERROR =       -3645904.66           BUDGET ERROR =           -504.78


  PERCENT DISCREPANCY =             -2.50    PERCENT DISCREPANCY =             -0.52



1
 SUMMARY VOLUMETRIC BUDGET FOR GSFLOW 
 DATE: 09 03 1995              CUMULATIVE TIME STEP:       3
 MODFLOW STRESS PERIOD     61     CURRENT TIME STEP:    1799     ITERATIONS:       6

 -----------------------------------------------------------------------------------

   CUMULATIVE VOLUMES               L**3   RATES FOR THIS TIME STEP           L**3/T
   ------------------                      ------------------------

                                     IN                                         IN
                                     --                                         --
        PRECIPITATION =        1.3351D+08          PRECIPITATION =                  
           STREAMFLOW =                               STREAMFLOW =                  
     GW BOUNDARY FLOW =           5625.95       GW BOUNDARY FLOW =              3.48


                                    OUT                                        OUT
                                    ---                                        ---
   EVAPOTRANSPIRATION =        7.3610D+07     EVAPOTRANSPIRATION =          76995.70
           STREAMFLOW =        7.4664D+07             STREAMFLOW =          10632.95
     GW BOUNDARY FLOW =          51210.28       GW BOUNDARY FLOW =             24.21

   INFLOWS - OUTFLOWS =       -1.4810D+07     INFLOWS - OUTFLOWS =         -87649.39
             --------                                   --------

 TOTAL STORAGE CHANGE =       -1.1162D+07         STORAGE CHANGE =         -87501.12
       --------------                             --------------
         LAND SURFACE =         367299.20           LAND SURFACE =         -19252.55
            SOIL ZONE =        1768223.68              SOIL ZONE =         -52083.78
     UNSATURATED ZONE =         -24879.77       UNSATURATED ZONE =          -9555.50
       SATURATED ZONE =       -1.3273D+07         SATURATED ZONE =          -6609.83

 OVERALL BUDGET ERROR =       -3648507.97           BUDGET ERROR =           -148.27


  PERCENT DISCREPANCY =             -2.49    PERCENT DISCREPANCY =             -0.17



1
 SUMMARY VOLUMETRIC BUDGET FOR GSFLOW 
 DATE: 09 10 1995              CUMULATIVE TIME STEP:      10
 MODFLOW STRESS PERIOD     61     CURRENT TIME STEP:    1806     ITERATIONS:       7

 -----------------------------------------------------------------------------------

   CUMULATIVE VOLUMES               L**3   RATES FOR THIS TIME STEP           L**3/T
   ------------------                      ------------------------

                                     IN                                         IN
                                     --                                         --
        PRECIPITATION =        1.3351D+08          PRECIPITATION =                  
           STREAMFLOW =                               STREAMFLOW =                  
     GW BOUNDARY FLOW =           5650.66       GW BOUNDARY FLOW =              3.57


                                    OUT                                        OUT
                                    ---                                        ---
   EVAPOTRANSPIRATION =        7.4043D+07     EVAPOTRANSPIRATION =          57981.41
           STREAMFLOW =        7.4734D+07             STREAMFLOW =           9537.46
     GW BOUNDARY FLOW =          51379.74       GW BOUNDARY FLOW =             24.18

   INFLOWS - OUTFLOWS =       -1.5315D+07     INFLOWS - OUTFLOWS =         -67539.49
             --------                                   --------

 TOTAL STORAGE CHANGE =       -1.1665D+07         STORAGE CHANGE =         -67395.23
       --------------                             --------------
         LAND SURFACE =         267725.60           LAND SURFACE =         -12446.55
            SOIL ZONE =        1471546.11              SOIL ZONE =         -39484.54
     UNSATURATED ZONE =         -88422.98       UNSATURATED ZONE =          -8936.88
       SATURATED ZONE =       -1.3316D+07         SATURATED ZONE =          -6527.80

 OVERALL BUDGET ERROR =       -3649477.23           BUDGET ERROR =           -144.26


  PERCENT DISCREPANCY =             -2.48    PERCENT DISCREPANCY =             -0.21



1
 SUMMARY VOLUMETRIC BUDGET FOR GSFLOW 
 DATE: 09 17 1995              CUMULATIVE TIME STEP:      17
 MODFLOW STRESS PERIOD     61     CURRENT TIME STEP:    1813     ITERATIONS:       7

 -----------------------------------------------------------------------------------

   CUMULATIVE VOLUMES               L**3   RATES FOR THIS TIME STEP           L**3/T
   ------------------                      ------------------------

                                     IN                                         IN
                                     --                                         --
        PRECIPITATION =        1.3351D+08          PRECIPITATION =                  
           STREAMFLOW =                               STREAMFLOW =                  
     GW BOUNDARY FLOW =           5676.01       GW BOUNDARY FLOW =              3.66


                                    OUT                                        OUT
                                    ---                                        ---
   EVAPOTRANSPIRATION =        7.4516D+07     EVAPOTRANSPIRATION =          54422.57
           STREAMFLOW =        7.4791D+07             STREAMFLOW =           7938.61
     GW BOUNDARY FLOW =          51548.22       GW BOUNDARY FLOW =             24.08

   INFLOWS - OUTFLOWS =       -1.5844D+07     INFLOWS - OUTFLOWS =         -62381.60
             --------                                   --------

 TOTAL STORAGE CHANGE =       -1.2193D+07         STORAGE CHANGE =         -62196.40
       --------------                             --------------
         LAND SURFACE =         177960.28           LAND SURFACE =          -9479.42
            SOIL ZONE =        1159725.16              SOIL ZONE =         -35679.35
     UNSATURATED ZONE =        -154805.64       UNSATURATED ZONE =          -9270.33
       SATURATED ZONE =       -1.3376D+07         SATURATED ZONE =          -7767.84

 OVERALL BUDGET ERROR =       -3650851.58           BUDGET ERROR =           -185.20


  PERCENT DISCREPANCY =             -2.47    PERCENT DISCREPANCY =             -0.30



1
 SUMMARY VOLUMETRIC BUDGET FOR GSFLOW 
 DATE: 09 24 1995              CUMULATIVE TIME STEP:      24
 MODFLOW STRESS PERIOD     61     CURRENT TIME STEP:    1820     ITERATIONS:       7

 -----------------------------------------------------------------------------------

   CUMULATIVE VOLUMES               L**3   RATES FOR THIS TIME STEP           L**3/T
   ------------------                      ------------------------

                                     IN                                         IN
                                     --                                         --
        PRECIPITATION =        1.3351D+08          PRECIPITATION =                  
           STREAMFLOW =                               STREAMFLOW =                  
     GW BOUNDARY FLOW =           5701.98       GW BOUNDARY FLOW =              3.75


                                    OUT                                        OUT
                                    ---                                        ---
   EVAPOTRANSPIRATION =        7.4854D+07     EVAPOTRANSPIRATION =          34815.56
           STREAMFLOW =        7.4845D+07             STREAMFLOW =           8147.56
     GW BOUNDARY FLOW =          51716.68       GW BOUNDARY FLOW =             24.11

   INFLOWS - OUTFLOWS =       -1.6236D+07     INFLOWS - OUTFLOWS =         -42983.48
             --------                                   --------

 TOTAL STORAGE CHANGE =       -1.2584D+07         STORAGE CHANGE =         -42833.30
       --------------                             --------------
         LAND SURFACE =         123669.61           LAND SURFACE =          -5454.35
            SOIL ZONE =         939328.89              SOIL ZONE =         -22458.60
     UNSATURATED ZONE =        -215366.17       UNSATURATED ZONE =          -8217.72
       SATURATED ZONE =       -1.3432D+07         SATURATED ZONE =          -6703.17

 OVERALL BUDGET ERROR =       -3652116.08           BUDGET ERROR =           -150.17


  PERCENT DISCREPANCY =             -2.47    PERCENT DISCREPANCY =             -0.35



1
 SUMMARY VOLUMETRIC BUDGET FOR GSFLOW 
 DATE: 10 01 1995              CUMULATIVE TIME STEP:       1
 MODFLOW STRESS PERIOD     62     CURRENT TIME STEP:    1827     ITERATIONS:       6

 -----------------------------------------------------------------------------------

   CUMULATIVE VOLUMES               L**3   RATES FOR THIS TIME STEP           L**3/T
   ------------------                      ------------------------

                                     IN                                         IN
                                     --                                         --
        PRECIPITATION =        1.3351D+08          PRECIPITATION =                  
           STREAMFLOW =                               STREAMFLOW =                  
     GW BOUNDARY FLOW =           5728.53       GW BOUNDARY FLOW =              3.83


                                    OUT                                        OUT
                                    ---                                        ---
   EVAPOTRANSPIRATION =        7.4991D+07     EVAPOTRANSPIRATION =          20710.93
           STREAMFLOW =        7.4907D+07             STREAMFLOW =           8826.47
     GW BOUNDARY FLOW =          51885.93       GW BOUNDARY FLOW =             24.18

   INFLOWS - OUTFLOWS =       -1.6436D+07     INFLOWS - OUTFLOWS =         -29557.76
             --------                                   --------

 TOTAL STORAGE CHANGE =       -1.2783D+07         STORAGE CHANGE =         -29445.50
       --------------                             --------------
         LAND SURFACE =         100770.57           LAND SURFACE =          -2835.89
            SOIL ZONE =         853011.45              SOIL ZONE =         -13340.72
     UNSATURATED ZONE =        -268409.45       UNSATURATED ZONE =          -7500.55
       SATURATED ZONE =       -1.3469D+07         SATURATED ZONE =          -5768.88

 OVERALL BUDGET ERROR =       -3652884.56           BUDGET ERROR =           -112.26


  PERCENT DISCREPANCY =             -2.47    PERCENT DISCREPANCY =             -0.38



1
 SUMMARY VOLUMETRIC BUDGET FOR GSFLOW 
 DATE: 10 08 1995              CUMULATIVE TIME STEP:       8
 MODFLOW STRESS PERIOD     62     CURRENT TIME STEP:    1834     ITERATIONS:       6

 -----------------------------------------------------------------------------------

   CUMULATIVE VOLUMES               L**3   RATES FOR THIS TIME STEP           L**3/T
   ------------------                      ------------------------

                                     IN                                         IN
                                     --                                         --
        PRECIPITATION =        1.3351D+08          PRECIPITATION =                  
           STREAMFLOW =                               STREAMFLOW =                  
     GW BOUNDARY FLOW =           5755.63       GW BOUNDARY FLOW =              3.90


                                    OUT                                        OUT
                                    ---                                        ---
   EVAPOTRANSPIRATION =        7.5152D+07     EVAPOTRANSPIRATION =          20092.75
           STREAMFLOW =        7.4966D+07             STREAMFLOW =           8520.18
     GW BOUNDARY FLOW =          52055.08       GW BOUNDARY FLOW =             24.18

   INFLOWS - OUTFLOWS =       -1.6656D+07     INFLOWS - OUTFLOWS =         -28633.20
             --------                                   --------

 TOTAL STORAGE CHANGE =       -1.3003D+07         STORAGE CHANGE =         -28520.38
       --------------                             --------------
         LAND SURFACE =          80522.27           LAND SURFACE =          -2457.43
            SOIL ZONE =         750926.64              SOIL ZONE =         -12490.36
     UNSATURATED ZONE =        -320467.83       UNSATURATED ZONE =          -7279.03
       SATURATED ZONE =       -1.3514D+07         SATURATED ZONE =          -6294.10

 OVERALL BUDGET ERROR =       -3653742.14           BUDGET ERROR =           -112.82


  PERCENT DISCREPANCY =             -2.46    PERCENT DISCREPANCY =             -0.39



1
 SUMMARY VOLUMETRIC BUDGET FOR GSFLOW 
 DATE: 10 15 1995              CUMULATIVE TIME STEP:      15
 MODFLOW STRESS PERIOD     62     CURRENT TIME STEP:    1841     ITERATIONS:       6

 -----------------------------------------------------------------------------------

   CUMULATIVE VOLUMES               L**3   RATES FOR THIS TIME STEP           L**3/T
   ------------------                      ------------------------

                                     IN                                         IN
                                     --                                         --
        PRECIPITATION =        1.3351D+08          PRECIPITATION =                  
           STREAMFLOW =                               STREAMFLOW =                  
     GW BOUNDARY FLOW =           5783.22       GW BOUNDARY FLOW =              3.97


                                    OUT                                        OUT
                                    ---                                        ---
   EVAPOTRANSPIRATION =        7.5310D+07     EVAPOTRANSPIRATION =          25230.45
           STREAMFLOW =        7.5024D+07             STREAMFLOW =           7897.49
     GW BOUNDARY FLOW =          52224.17       GW BOUNDARY FLOW =             24.14

   INFLOWS - OUTFLOWS =       -1.6871D+07     INFLOWS - OUTFLOWS =         -33148.11
             --------                                   --------

 TOTAL STORAGE CHANGE =       -1.3217D+07         STORAGE CHANGE =         -33000.04
       --------------                             --------------
         LAND SURFACE =          62088.08           LAND SURFACE =          -2638.24
            SOIL ZONE =         655344.04              SOIL ZONE =         -15148.23
     UNSATURATED ZONE =        -372515.89       UNSATURATED ZONE =          -7606.57
       SATURATED ZONE =       -1.3562D+07         SATURATED ZONE =          -7607.53

 OVERALL BUDGET ERROR =       -3654670.99           BUDGET ERROR =           -148.07


  PERCENT DISCREPANCY =             -2.46    PERCENT DISCREPANCY =             -0.45



1
 SUMMARY VOLUMETRIC BUDGET FOR GSFLOW 
 DATE: 10 22 1995              CUMULATIVE TIME STEP:      22
 MODFLOW STRESS PERIOD     62     CURRENT TIME STEP:    1848     ITERATIONS:       7

 -----------------------------------------------------------------------------------

   CUMULATIVE VOLUMES               L**3   RATES FOR THIS TIME STEP           L**3/T
   ------------------                      ------------------------

                                     IN                                         IN
                                     --                                         --
        PRECIPITATION =        1.3351D+08          PRECIPITATION =                  
           STREAMFLOW =                               STREAMFLOW =                  
     GW BOUNDARY FLOW =           5811.27       GW BOUNDARY FLOW =              4.04


                                    OUT                                        OUT
                                    ---                                        ---
   EVAPOTRANSPIRATION =        7.5452D+07     EVAPOTRANSPIRATION =           5878.16
           STREAMFLOW =        7.5080D+07             STREAMFLOW =           9065.23
     GW BOUNDARY FLOW =          52393.26       GW BOUNDARY FLOW =             24.25

   INFLOWS - OUTFLOWS =       -1.7070D+07     INFLOWS - OUTFLOWS =         -14963.59
             --------                                   --------

 TOTAL STORAGE CHANGE =       -1.3414D+07         STORAGE CHANGE =         -14887.60
       --------------                             --------------
         LAND SURFACE =          48265.30           LAND SURFACE =           -654.57
            SOIL ZONE =         571881.73              SOIL ZONE =          -3468.97
     UNSATURATED ZONE =        -422367.23       UNSATURATED ZONE =          -6224.55
       SATURATED ZONE =       -1.3612D+07         SATURATED ZONE =          -4540.04

 OVERALL BUDGET ERROR =       -3655615.89           BUDGET ERROR =            -75.99


  PERCENT DISCREPANCY =             -2.46    PERCENT DISCREPANCY =             -0.51



1
 SUMMARY VOLUMETRIC BUDGET FOR GSFLOW 
 DATE: 10 29 1995              CUMULATIVE TIME STEP:      29
 MODFLOW STRESS PERIOD     62     CURRENT TIME STEP:    1855     ITERATIONS:       5

 -----------------------------------------------------------------------------------

   CUMULATIVE VOLUMES               L**3   RATES FOR THIS TIME STEP           L**3/T
   ------------------                      ------------------------

                                     IN                                         IN
                                     --                                         --
        PRECIPITATION =        1.3351D+08          PRECIPITATION =                  
           STREAMFLOW =                               STREAMFLOW =                  
     GW BOUNDARY FLOW =           5839.86       GW BOUNDARY FLOW =              4.12


                                    OUT                                        OUT
                                    ---                                        ---
   EVAPOTRANSPIRATION =        7.5537D+07     EVAPOTRANSPIRATION =          14907.81
           STREAMFLOW =        7.5140D+07             STREAMFLOW =           8187.52
     GW BOUNDARY FLOW =          52562.75       GW BOUNDARY FLOW =             24.19

   INFLOWS - OUTFLOWS =       -1.7215D+07     INFLOWS - OUTFLOWS =         -23115.40
             --------                                   --------

 TOTAL STORAGE CHANGE =       -1.3558D+07         STORAGE CHANGE =         -22978.45
       --------------                             --------------
         LAND SURFACE =          42120.00           LAND SURFACE =          -1365.71
            SOIL ZONE =         522192.72              SOIL ZONE =          -8177.70
     UNSATURATED ZONE =        -467762.48       UNSATURATED ZONE =          -6495.92
       SATURATED ZONE =       -1.3655D+07         SATURATED ZONE =          -6939.66

 OVERALL BUDGET ERROR =       -3656411.82           BUDGET ERROR =           -136.95


  PERCENT DISCREPANCY =             -2.46    PERCENT DISCREPANCY =             -0.59



