1
 SUMMARY VOLUMETRIC BUDGET FOR GSFLOW 
 DATE: 10 07 1990              CUMULATIVE TIME STEP:       7
 MODFLOW STRESS PERIOD      2     CURRENT TIME STEP:       7     ITERATIONS:       7

 -----------------------------------------------------------------------------------

   CUMULATIVE VOLUMES               L**3   RATES FOR THIS TIME STEP           L**3/T
   ------------------                      ------------------------

                                     IN                                         IN
                                     --                                         --
        PRECIPITATION =                            PRECIPITATION =                  
           STREAMFLOW =                               STREAMFLOW =                  
     GW BOUNDARY FLOW =                         GW BOUNDARY FLOW =                  


                                    OUT                                        OUT
                                    ---                                        ---
   EVAPOTRANSPIRATION =         385033.15     EVAPOTRANSPIRATION =          11801.35
           STREAMFLOW =          45983.92             STREAMFLOW =           8139.16
     GW BOUNDARY FLOW =            252.81       GW BOUNDARY FLOW =             36.30

   INFLOWS - OUTFLOWS =        -431269.88     INFLOWS - OUTFLOWS =         -19976.82
             --------                                   --------

 TOTAL STORAGE CHANGE =        -429677.96         STORAGE CHANGE =         -19948.85
       --------------                             --------------
         LAND SURFACE =                             LAND SURFACE =                  
            SOIL ZONE =         -33989.01              SOIL ZONE =           -963.16
     UNSATURATED ZONE =        -502840.81       UNSATURATED ZONE =         -33596.12
       SATURATED ZONE =         107151.86         SATURATED ZONE =          14610.43

 OVERALL BUDGET ERROR =          -1591.92           BUDGET ERROR =            -27.97


  PERCENT DISCREPANCY =             -0.37    PERCENT DISCREPANCY =             -0.14



1
 SUMMARY VOLUMETRIC BUDGET FOR GSFLOW 
 DATE: 10 14 1990              CUMULATIVE TIME STEP:      14
 MODFLOW STRESS PERIOD      2     CURRENT TIME STEP:      14     ITERATIONS:       6

 -----------------------------------------------------------------------------------

   CUMULATIVE VOLUMES               L**3   RATES FOR THIS TIME STEP           L**3/T
   ------------------                      ------------------------

                                     IN                                         IN
                                     --                                         --
        PRECIPITATION =                            PRECIPITATION =                  
           STREAMFLOW =                               STREAMFLOW =                  
     GW BOUNDARY FLOW =                         GW BOUNDARY FLOW =                  


                                    OUT                                        OUT
                                    ---                                        ---
   EVAPOTRANSPIRATION =         665240.43     EVAPOTRANSPIRATION =          42298.97
           STREAMFLOW =         100964.01             STREAMFLOW =           7454.66
     GW BOUNDARY FLOW =            506.68       GW BOUNDARY FLOW =             36.25

   INFLOWS - OUTFLOWS =        -766711.12     INFLOWS - OUTFLOWS =         -49789.87
             --------                                   --------

 TOTAL STORAGE CHANGE =        -764747.45         STORAGE CHANGE =         -49752.75
       --------------                             --------------
         LAND SURFACE =                             LAND SURFACE =                  
            SOIL ZONE =         -59357.91              SOIL ZONE =          -4482.01
     UNSATURATED ZONE =        -877878.22       UNSATURATED ZONE =         -52089.29
       SATURATED ZONE =         172488.69         SATURATED ZONE =           6818.55

 OVERALL BUDGET ERROR =          -1963.67           BUDGET ERROR =            -37.12


  PERCENT DISCREPANCY =             -0.26    PERCENT DISCREPANCY =             -0.07



1
 SUMMARY VOLUMETRIC BUDGET FOR GSFLOW 
 DATE: 10 21 1990              CUMULATIVE TIME STEP:      21
 MODFLOW STRESS PERIOD      2     CURRENT TIME STEP:      21     ITERATIONS:       6

 -----------------------------------------------------------------------------------

   CUMULATIVE VOLUMES               L**3   RATES FOR THIS TIME STEP           L**3/T
   ------------------                      ------------------------

                                     IN                                         IN
                                     --                                         --
        PRECIPITATION =         188432.87          PRECIPITATION =                  
           STREAMFLOW =                               STREAMFLOW =                  
     GW BOUNDARY FLOW =                         GW BOUNDARY FLOW =                  


                                    OUT                                        OUT
                                    ---                                        ---
   EVAPOTRANSPIRATION =         815650.62     EVAPOTRANSPIRATION =          41836.93
           STREAMFLOW =         163907.50             STREAMFLOW =          10146.11
     GW BOUNDARY FLOW =            760.88       GW BOUNDARY FLOW =             36.37

   INFLOWS - OUTFLOWS =        -791886.13     INFLOWS - OUTFLOWS =         -52019.40
             --------                                   --------

 TOTAL STORAGE CHANGE =        -791108.70         STORAGE CHANGE =         -52010.68
       --------------                             --------------
         LAND SURFACE =          18885.57           LAND SURFACE =         -43558.49
            SOIL ZONE =          45836.13              SOIL ZONE =           2010.50
     UNSATURATED ZONE =       -1091727.83       UNSATURATED ZONE =         -21379.11
       SATURATED ZONE =         235897.42         SATURATED ZONE =          10916.42

 OVERALL BUDGET ERROR =           -777.43           BUDGET ERROR =             -8.73


  PERCENT DISCREPANCY =             -0.08    PERCENT DISCREPANCY =             -0.02



1
 SUMMARY VOLUMETRIC BUDGET FOR GSFLOW 
 DATE: 10 28 1990              CUMULATIVE TIME STEP:      28
 MODFLOW STRESS PERIOD      2     CURRENT TIME STEP:      28     ITERATIONS:       6

 -----------------------------------------------------------------------------------

   CUMULATIVE VOLUMES               L**3   RATES FOR THIS TIME STEP           L**3/T
   ------------------                      ------------------------

                                     IN                                         IN
                                     --                                         --
        PRECIPITATION =         188432.87          PRECIPITATION =                  
           STREAMFLOW =                               STREAMFLOW =                  
     GW BOUNDARY FLOW =                         GW BOUNDARY FLOW =                  


                                    OUT                                        OUT
                                    ---                                        ---
   EVAPOTRANSPIRATION =         944492.91     EVAPOTRANSPIRATION =          11829.11
           STREAMFLOW =         225573.48             STREAMFLOW =           8947.73
     GW BOUNDARY FLOW =           1014.09       GW BOUNDARY FLOW =             36.13

   INFLOWS - OUTFLOWS =        -982647.61     INFLOWS - OUTFLOWS =         -20812.97
             --------                                   --------

 TOTAL STORAGE CHANGE =        -981756.09         STORAGE CHANGE =         -20803.32
       --------------                             --------------
         LAND SURFACE =                             LAND SURFACE =                  
            SOIL ZONE =          15970.68              SOIL ZONE =          -3518.39
     UNSATURATED ZONE =       -1275379.08       UNSATURATED ZONE =         -23236.65
       SATURATED ZONE =         277652.30         SATURATED ZONE =           5951.73

 OVERALL BUDGET ERROR =           -891.52           BUDGET ERROR =             -9.65


  PERCENT DISCREPANCY =             -0.08    PERCENT DISCREPANCY =             -0.05



1
 SUMMARY VOLUMETRIC BUDGET FOR GSFLOW 
 DATE: 11 04 1990              CUMULATIVE TIME STEP:       4
 MODFLOW STRESS PERIOD      3     CURRENT TIME STEP:      35     ITERATIONS:       6

 -----------------------------------------------------------------------------------

   CUMULATIVE VOLUMES               L**3   RATES FOR THIS TIME STEP           L**3/T
   ------------------                      ------------------------

                                     IN                                         IN
                                     --                                         --
        PRECIPITATION =         703113.06          PRECIPITATION =                  
           STREAMFLOW =                               STREAMFLOW =                  
     GW BOUNDARY FLOW =                         GW BOUNDARY FLOW =                  


                                    OUT                                        OUT
                                    ---                                        ---
   EVAPOTRANSPIRATION =        1005196.89     EVAPOTRANSPIRATION =          26361.61
           STREAMFLOW =         296218.65             STREAMFLOW =          10643.59
     GW BOUNDARY FLOW =           1267.14       GW BOUNDARY FLOW =             36.14

   INFLOWS - OUTFLOWS =        -599569.62     INFLOWS - OUTFLOWS =         -37041.34
             --------                                   --------

 TOTAL STORAGE CHANGE =        -603845.04         STORAGE CHANGE =         -38319.77
       --------------                             --------------
         LAND SURFACE =         132159.65           LAND SURFACE =        -160480.33
            SOIL ZONE =         347419.89              SOIL ZONE =         132874.02
     UNSATURATED ZONE =       -1420956.67       UNSATURATED ZONE =         -20069.46
       SATURATED ZONE =         337532.09         SATURATED ZONE =           9356.00

 OVERALL BUDGET ERROR =           4275.42           BUDGET ERROR =           1278.43

  ***WARNING, FLUX RATES OFF > 3%

  PERCENT DISCREPANCY =              0.33    PERCENT DISCREPANCY =              3.39



1
 SUMMARY VOLUMETRIC BUDGET FOR GSFLOW 
 DATE: 11 11 1990              CUMULATIVE TIME STEP:      11
 MODFLOW STRESS PERIOD      3     CURRENT TIME STEP:      42     ITERATIONS:       6

 -----------------------------------------------------------------------------------

   CUMULATIVE VOLUMES               L**3   RATES FOR THIS TIME STEP           L**3/T
   ------------------                      ------------------------

                                     IN                                         IN
                                     --                                         --
        PRECIPITATION =         703113.06          PRECIPITATION =                  
           STREAMFLOW =                               STREAMFLOW =                  
     GW BOUNDARY FLOW =                         GW BOUNDARY FLOW =                  


                                    OUT                                        OUT
                                    ---                                        ---
   EVAPOTRANSPIRATION =        1082631.53     EVAPOTRANSPIRATION =          12163.98
           STREAMFLOW =         368027.62             STREAMFLOW =           9885.30
     GW BOUNDARY FLOW =           1519.30       GW BOUNDARY FLOW =             35.94

   INFLOWS - OUTFLOWS =        -749065.39     INFLOWS - OUTFLOWS =         -22085.23
             --------                                   --------

 TOTAL STORAGE CHANGE =        -753450.90         STORAGE CHANGE =         -22074.67
       --------------                             --------------
         LAND SURFACE =            595.09           LAND SURFACE =          -1416.54
            SOIL ZONE =         416714.85              SOIL ZONE =          -6369.67
     UNSATURATED ZONE =       -1560417.24       UNSATURATED ZONE =         -19966.37
       SATURATED ZONE =         389656.37         SATURATED ZONE =           5677.91

 OVERALL BUDGET ERROR =           4385.51           BUDGET ERROR =            -10.56


  PERCENT DISCREPANCY =              0.30    PERCENT DISCREPANCY =             -0.05



1
 SUMMARY VOLUMETRIC BUDGET FOR GSFLOW 
 DATE: 11 18 1990              CUMULATIVE TIME STEP:      18
 MODFLOW STRESS PERIOD      3     CURRENT TIME STEP:      49     ITERATIONS:       6

 -----------------------------------------------------------------------------------

   CUMULATIVE VOLUMES               L**3   RATES FOR THIS TIME STEP           L**3/T
   ------------------                      ------------------------

                                     IN                                         IN
                                     --                                         --
        PRECIPITATION =         747883.35          PRECIPITATION =                  
           STREAMFLOW =                               STREAMFLOW =                  
     GW BOUNDARY FLOW =                         GW BOUNDARY FLOW =                  


                                    OUT                                        OUT
                                    ---                                        ---
   EVAPOTRANSPIRATION =        1155230.98     EVAPOTRANSPIRATION =           5080.23
           STREAMFLOW =         440535.29             STREAMFLOW =          10690.36
     GW BOUNDARY FLOW =           1770.67       GW BOUNDARY FLOW =             35.89

   INFLOWS - OUTFLOWS =        -849653.59     INFLOWS - OUTFLOWS =         -15806.47
             --------                                   --------

 TOTAL STORAGE CHANGE =        -854029.52         STORAGE CHANGE =         -15810.31
       --------------                             --------------
         LAND SURFACE =           7868.08           LAND SURFACE =          -3691.47
            SOIL ZONE =         395777.95              SOIL ZONE =           -782.23
     UNSATURATED ZONE =       -1694076.11       UNSATURATED ZONE =         -18637.46
       SATURATED ZONE =         436400.52         SATURATED ZONE =           7300.85

 OVERALL BUDGET ERROR =           4375.93           BUDGET ERROR =              3.83


  PERCENT DISCREPANCY =              0.27    PERCENT DISCREPANCY =              0.02



1
 SUMMARY VOLUMETRIC BUDGET FOR GSFLOW 
 DATE: 11 25 1990              CUMULATIVE TIME STEP:      25
 MODFLOW STRESS PERIOD      3     CURRENT TIME STEP:      56     ITERATIONS:       6

 -----------------------------------------------------------------------------------

   CUMULATIVE VOLUMES               L**3   RATES FOR THIS TIME STEP           L**3/T
   ------------------                      ------------------------

                                     IN                                         IN
                                     --                                         --
        PRECIPITATION =        1009043.38          PRECIPITATION =         186542.88
           STREAMFLOW =                               STREAMFLOW =                  
     GW BOUNDARY FLOW =                         GW BOUNDARY FLOW =                  


                                    OUT                                        OUT
                                    ---                                        ---
   EVAPOTRANSPIRATION =        1215842.48     EVAPOTRANSPIRATION =           3757.19
           STREAMFLOW =         516640.57             STREAMFLOW =          10897.71
     GW BOUNDARY FLOW =           2021.64       GW BOUNDARY FLOW =             35.80

   INFLOWS - OUTFLOWS =        -725461.31     INFLOWS - OUTFLOWS =         171852.18
             --------                                   --------

 TOTAL STORAGE CHANGE =        -732017.42         STORAGE CHANGE =         169927.16
       --------------                             --------------
         LAND SURFACE =          86180.68           LAND SURFACE =          69567.13
            SOIL ZONE =         517685.65              SOIL ZONE =         111973.33
     UNSATURATED ZONE =       -1821745.52       UNSATURATED ZONE =         -17922.43
       SATURATED ZONE =         485861.71         SATURATED ZONE =           6309.13

 OVERALL BUDGET ERROR =           6556.11           BUDGET ERROR =           1925.02


  PERCENT DISCREPANCY =              0.38    PERCENT DISCREPANCY =              1.04



1
 SUMMARY VOLUMETRIC BUDGET FOR GSFLOW 
 DATE: 12 02 1990              CUMULATIVE TIME STEP:       2
 MODFLOW STRESS PERIOD      4     CURRENT TIME STEP:      63     ITERATIONS:       6

 -----------------------------------------------------------------------------------

   CUMULATIVE VOLUMES               L**3   RATES FOR THIS TIME STEP           L**3/T
   ------------------                      ------------------------

                                     IN                                         IN
                                     --                                         --
        PRECIPITATION =        1449284.55          PRECIPITATION =                  
           STREAMFLOW =                               STREAMFLOW =                  
     GW BOUNDARY FLOW =                         GW BOUNDARY FLOW =                  


                                    OUT                                        OUT
                                    ---                                        ---
   EVAPOTRANSPIRATION =        1222359.55     EVAPOTRANSPIRATION =            236.02
           STREAMFLOW =         593892.85             STREAMFLOW =          11075.05
     GW BOUNDARY FLOW =           2272.15       GW BOUNDARY FLOW =             35.77

   INFLOWS - OUTFLOWS =        -369240.00     INFLOWS - OUTFLOWS =         -11346.84
             --------                                   --------

 TOTAL STORAGE CHANGE =        -376931.86         STORAGE CHANGE =         -11355.71
       --------------                             --------------
         LAND SURFACE =         486845.62           LAND SURFACE =           -339.04
            SOIL ZONE =         549973.55              SOIL ZONE =            151.49
     UNSATURATED ZONE =       -1944686.92       UNSATURATED ZONE =         -17322.06
       SATURATED ZONE =         530935.81         SATURATED ZONE =           6153.90

 OVERALL BUDGET ERROR =           7691.86           BUDGET ERROR =              8.87


  PERCENT DISCREPANCY =              0.42    PERCENT DISCREPANCY =              0.08



1
 SUMMARY VOLUMETRIC BUDGET FOR GSFLOW 
 DATE: 12 09 1990              CUMULATIVE TIME STEP:       9
 MODFLOW STRESS PERIOD      4     CURRENT TIME STEP:      70     ITERATIONS:       6

 -----------------------------------------------------------------------------------

   CUMULATIVE VOLUMES               L**3   RATES FOR THIS TIME STEP           L**3/T
   ------------------                      ------------------------

                                     IN                                         IN
                                     --                                         --
        PRECIPITATION =        1449284.55          PRECIPITATION =                  
           STREAMFLOW =                               STREAMFLOW =                  
     GW BOUNDARY FLOW =                         GW BOUNDARY FLOW =                  


                                    OUT                                        OUT
                                    ---                                        ---
   EVAPOTRANSPIRATION =        1298459.46     EVAPOTRANSPIRATION =          13903.42
           STREAMFLOW =         671825.40             STREAMFLOW =          11001.26
     GW BOUNDARY FLOW =           2522.14       GW BOUNDARY FLOW =             35.65

   INFLOWS - OUTFLOWS =        -523522.45     INFLOWS - OUTFLOWS =         -24940.34
             --------                                   --------

 TOTAL STORAGE CHANGE =        -535717.11         STORAGE CHANGE =         -25035.09
       --------------                             --------------
         LAND SURFACE =          67215.41           LAND SURFACE =         -45889.70
            SOIL ZONE =         892057.99              SOIL ZONE =          33314.27
     UNSATURATED ZONE =       -2062488.76       UNSATURATED ZONE =         -16508.32
       SATURATED ZONE =         567498.13         SATURATED ZONE =           4048.66

 OVERALL BUDGET ERROR =          12194.66           BUDGET ERROR =             94.75


  PERCENT DISCREPANCY =              0.62    PERCENT DISCREPANCY =              0.38



1
 SUMMARY VOLUMETRIC BUDGET FOR GSFLOW 
 DATE: 12 16 1990              CUMULATIVE TIME STEP:      16
 MODFLOW STRESS PERIOD      4     CURRENT TIME STEP:      77     ITERATIONS:       6

 -----------------------------------------------------------------------------------

   CUMULATIVE VOLUMES               L**3   RATES FOR THIS TIME STEP           L**3/T
   ------------------                      ------------------------

                                     IN                                         IN
                                     --                                         --
        PRECIPITATION =        1804962.84          PRECIPITATION =                  
           STREAMFLOW =                               STREAMFLOW =                  
     GW BOUNDARY FLOW =                         GW BOUNDARY FLOW =                  


                                    OUT                                        OUT
                                    ---                                        ---
   EVAPOTRANSPIRATION =        1326806.29     EVAPOTRANSPIRATION =                  
           STREAMFLOW =         751696.79             STREAMFLOW =          11518.94
     GW BOUNDARY FLOW =           2771.59       GW BOUNDARY FLOW =             35.61

   INFLOWS - OUTFLOWS =        -276311.83     INFLOWS - OUTFLOWS =         -11554.55
             --------                                   --------

 TOTAL STORAGE CHANGE =        -290820.72         STORAGE CHANGE =         -11565.64
       --------------                             --------------
         LAND SURFACE =         252566.26           LAND SURFACE =                  
            SOIL ZONE =        1033893.79              SOIL ZONE =            -17.51
     UNSATURATED ZONE =       -2175905.85       UNSATURATED ZONE =         -15947.65
       SATURATED ZONE =         598624.92         SATURATED ZONE =           4399.52

 OVERALL BUDGET ERROR =          14508.89           BUDGET ERROR =             11.08


  PERCENT DISCREPANCY =              0.69    PERCENT DISCREPANCY =              0.10



1
 SUMMARY VOLUMETRIC BUDGET FOR GSFLOW 
 DATE: 12 23 1990              CUMULATIVE TIME STEP:      23
 MODFLOW STRESS PERIOD      4     CURRENT TIME STEP:      84     ITERATIONS:       6

 -----------------------------------------------------------------------------------

   CUMULATIVE VOLUMES               L**3   RATES FOR THIS TIME STEP           L**3/T
   ------------------                      ------------------------

                                     IN                                         IN
                                     --                                         --
        PRECIPITATION =        2276236.55          PRECIPITATION =                  
           STREAMFLOW =                               STREAMFLOW =                  
     GW BOUNDARY FLOW =              0.08       GW BOUNDARY FLOW =              0.04


                                    OUT                                        OUT
                                    ---                                        ---
   EVAPOTRANSPIRATION =        1327868.25     EVAPOTRANSPIRATION =                  
           STREAMFLOW =         832523.30             STREAMFLOW =          11569.67
     GW BOUNDARY FLOW =           3020.63       GW BOUNDARY FLOW =             35.57

   INFLOWS - OUTFLOWS =         112824.44     INFLOWS - OUTFLOWS =         -11605.20
             --------                                   --------

 TOTAL STORAGE CHANGE =          98246.43         STORAGE CHANGE =         -11614.76
       --------------                             --------------
         LAND SURFACE =         722784.34           LAND SURFACE =                  
            SOIL ZONE =        1034094.90              SOIL ZONE =             56.59
     UNSATURATED ZONE =       -2285110.53       UNSATURATED ZONE =         -15357.36
       SATURATED ZONE =         626477.53         SATURATED ZONE =           3686.00

 OVERALL BUDGET ERROR =          14578.01           BUDGET ERROR =              9.55


  PERCENT DISCREPANCY =              0.64    PERCENT DISCREPANCY =              0.08



1
 SUMMARY VOLUMETRIC BUDGET FOR GSFLOW 
 DATE: 12 30 1990              CUMULATIVE TIME STEP:      30
 MODFLOW STRESS PERIOD      4     CURRENT TIME STEP:      91     ITERATIONS:       5

 -----------------------------------------------------------------------------------

   CUMULATIVE VOLUMES               L**3   RATES FOR THIS TIME STEP           L**3/T
   ------------------                      ------------------------

                                     IN                                         IN
                                     --                                         --
        PRECIPITATION =        2276236.55          PRECIPITATION =                  
           STREAMFLOW =                               STREAMFLOW =                  
     GW BOUNDARY FLOW =              0.77       GW BOUNDARY FLOW =              0.14


                                    OUT                                        OUT
                                    ---                                        ---
   EVAPOTRANSPIRATION =        1328438.41     EVAPOTRANSPIRATION =                  
           STREAMFLOW =         913776.30             STREAMFLOW =          11638.12
     GW BOUNDARY FLOW =           3269.75       GW BOUNDARY FLOW =             35.60

   INFLOWS - OUTFLOWS =          30752.85     INFLOWS - OUTFLOWS =         -11673.58
             --------                                   --------

 TOTAL STORAGE CHANGE =          16116.86         STORAGE CHANGE =         -11681.72
       --------------                             --------------
         LAND SURFACE =         722216.94           LAND SURFACE =                  
            SOIL ZONE =        1034682.32              SOIL ZONE =            102.17
     UNSATURATED ZONE =       -2390408.10       UNSATURATED ZONE =         -14808.32
       SATURATED ZONE =         649625.47         SATURATED ZONE =           3024.42

 OVERALL BUDGET ERROR =          14635.99           BUDGET ERROR =              8.14


  PERCENT DISCREPANCY =              0.65    PERCENT DISCREPANCY =              0.07



1
 SUMMARY VOLUMETRIC BUDGET FOR GSFLOW 
 DATE: 01 06 1991              CUMULATIVE TIME STEP:       6
 MODFLOW STRESS PERIOD      5     CURRENT TIME STEP:      98     ITERATIONS:       5

 -----------------------------------------------------------------------------------

   CUMULATIVE VOLUMES               L**3   RATES FOR THIS TIME STEP           L**3/T
   ------------------                      ------------------------

                                     IN                                         IN
                                     --                                         --
        PRECIPITATION =        2276236.55          PRECIPITATION =                  
           STREAMFLOW =                               STREAMFLOW =                  
     GW BOUNDARY FLOW =              2.09       GW BOUNDARY FLOW =              0.22


                                    OUT                                        OUT
                                    ---                                        ---
   EVAPOTRANSPIRATION =        1355522.18     EVAPOTRANSPIRATION =           3191.06
           STREAMFLOW =         995689.18             STREAMFLOW =          11741.22
     GW BOUNDARY FLOW =           3519.69       GW BOUNDARY FLOW =             35.75

   INFLOWS - OUTFLOWS =         -78492.41     INFLOWS - OUTFLOWS =         -14967.81
             --------                                   --------

 TOTAL STORAGE CHANGE =         -95755.27         STORAGE CHANGE =         -15102.15
       --------------                             --------------
         LAND SURFACE =         592099.77           LAND SURFACE =          -8106.31
            SOIL ZONE =        1135907.27              SOIL ZONE =           4887.48
     UNSATURATED ZONE =       -2491741.08       UNSATURATED ZONE =         -14244.60
       SATURATED ZONE =         667978.49         SATURATED ZONE =           2361.27

 OVERALL BUDGET ERROR =          17262.85           BUDGET ERROR =            134.34


  PERCENT DISCREPANCY =              0.73    PERCENT DISCREPANCY =              0.89



1
 SUMMARY VOLUMETRIC BUDGET FOR GSFLOW 
 DATE: 01 13 1991              CUMULATIVE TIME STEP:      13
 MODFLOW STRESS PERIOD      5     CURRENT TIME STEP:     105     ITERATIONS:       6

 -----------------------------------------------------------------------------------

   CUMULATIVE VOLUMES               L**3   RATES FOR THIS TIME STEP           L**3/T
   ------------------                      ------------------------

                                     IN                                         IN
                                     --                                         --
        PRECIPITATION =        2596386.94          PRECIPITATION =          10327.43
           STREAMFLOW =                               STREAMFLOW =                  
     GW BOUNDARY FLOW =              4.01       GW BOUNDARY FLOW =              0.31


                                    OUT                                        OUT
                                    ---                                        ---
   EVAPOTRANSPIRATION =        1422472.89     EVAPOTRANSPIRATION =          18642.67
           STREAMFLOW =        1078011.36             STREAMFLOW =          11737.27
     GW BOUNDARY FLOW =           3769.92       GW BOUNDARY FLOW =             35.73

   INFLOWS - OUTFLOWS =          92136.78     INFLOWS - OUTFLOWS =         -20087.92
             --------                                   --------

 TOTAL STORAGE CHANGE =          69768.37         STORAGE CHANGE =         -21357.12
       --------------                             --------------
         LAND SURFACE =         529885.07           LAND SURFACE =        -135264.71
            SOIL ZONE =        1448177.70              SOIL ZONE =         126488.11
     UNSATURATED ZONE =       -2589029.81       UNSATURATED ZONE =         -13688.32
       SATURATED ZONE =         680735.08         SATURATED ZONE =           1107.78

 OVERALL BUDGET ERROR =          22368.41           BUDGET ERROR =           1269.20

  ***WARNING, FLUX RATES OFF > 3%

  PERCENT DISCREPANCY =              0.87    PERCENT DISCREPANCY =              4.09



1
 SUMMARY VOLUMETRIC BUDGET FOR GSFLOW 
 DATE: 01 20 1991              CUMULATIVE TIME STEP:      20
 MODFLOW STRESS PERIOD      5     CURRENT TIME STEP:     112     ITERATIONS:       5

 -----------------------------------------------------------------------------------

   CUMULATIVE VOLUMES               L**3   RATES FOR THIS TIME STEP           L**3/T
   ------------------                      ------------------------

                                     IN                                         IN
                                     --                                         --
        PRECIPITATION =        2596386.94          PRECIPITATION =                  
           STREAMFLOW =                               STREAMFLOW =                  
     GW BOUNDARY FLOW =              6.53       GW BOUNDARY FLOW =              0.40


                                    OUT                                        OUT
                                    ---                                        ---
   EVAPOTRANSPIRATION =        1499849.97     EVAPOTRANSPIRATION =           2462.59
           STREAMFLOW =        1161212.86             STREAMFLOW =          11904.50
     GW BOUNDARY FLOW =           4020.18       GW BOUNDARY FLOW =             35.75

   INFLOWS - OUTFLOWS =         -68689.53     INFLOWS - OUTFLOWS =         -14402.44
             --------                                   --------

 TOTAL STORAGE CHANGE =         -91832.81         STORAGE CHANGE =         -14397.64
       --------------                             --------------
         LAND SURFACE =         356897.60           LAND SURFACE =           -433.81
            SOIL ZONE =        1543769.70              SOIL ZONE =          -1962.39
     UNSATURATED ZONE =       -2682412.78       UNSATURATED ZONE =         -13118.96
       SATURATED ZONE =         689912.28         SATURATED ZONE =           1117.50

 OVERALL BUDGET ERROR =          23143.28           BUDGET ERROR =             -4.81


  PERCENT DISCREPANCY =              0.86    PERCENT DISCREPANCY =             -0.03



1
 SUMMARY VOLUMETRIC BUDGET FOR GSFLOW 
 DATE: 01 27 1991              CUMULATIVE TIME STEP:      27
 MODFLOW STRESS PERIOD      5     CURRENT TIME STEP:     119     ITERATIONS:       5

 -----------------------------------------------------------------------------------

   CUMULATIVE VOLUMES               L**3   RATES FOR THIS TIME STEP           L**3/T
   ------------------                      ------------------------

                                     IN                                         IN
                                     --                                         --
        PRECIPITATION =        2596386.94          PRECIPITATION =                  
           STREAMFLOW =                               STREAMFLOW =                  
     GW BOUNDARY FLOW =              9.64       GW BOUNDARY FLOW =              0.48


                                    OUT                                        OUT
                                    ---                                        ---
   EVAPOTRANSPIRATION =        1525752.61     EVAPOTRANSPIRATION =           1702.95
           STREAMFLOW =        1244557.81             STREAMFLOW =          11932.28
     GW BOUNDARY FLOW =           4270.39       GW BOUNDARY FLOW =             35.74

   INFLOWS - OUTFLOWS =        -178184.23     INFLOWS - OUTFLOWS =         -13670.49
             --------                                   --------

 TOTAL STORAGE CHANGE =        -201535.48         STORAGE CHANGE =         -13680.25
       --------------                             --------------
         LAND SURFACE =         323033.09           LAND SURFACE =           -547.84
            SOIL ZONE =        1552416.40              SOIL ZONE =          -1068.14
     UNSATURATED ZONE =       -2772325.55       UNSATURATED ZONE =         -12629.14
       SATURATED ZONE =         695340.14         SATURATED ZONE =            564.86

 OVERALL BUDGET ERROR =          23351.24           BUDGET ERROR =              9.76


  PERCENT DISCREPANCY =              0.84    PERCENT DISCREPANCY =              0.07



1
 SUMMARY VOLUMETRIC BUDGET FOR GSFLOW 
 DATE: 02 03 1991              CUMULATIVE TIME STEP:       3
 MODFLOW STRESS PERIOD      6     CURRENT TIME STEP:     126     ITERATIONS:       6

 -----------------------------------------------------------------------------------

   CUMULATIVE VOLUMES               L**3   RATES FOR THIS TIME STEP           L**3/T
   ------------------                      ------------------------

                                     IN                                         IN
                                     --                                         --
        PRECIPITATION =        3228422.31          PRECIPITATION =          30459.53
           STREAMFLOW =                               STREAMFLOW =                  
     GW BOUNDARY FLOW =             13.29       GW BOUNDARY FLOW =              0.55


                                    OUT                                        OUT
                                    ---                                        ---
   EVAPOTRANSPIRATION =        1632772.92     EVAPOTRANSPIRATION =          21404.12
           STREAMFLOW =        1329554.13             STREAMFLOW =          12228.17
     GW BOUNDARY FLOW =           4520.57       GW BOUNDARY FLOW =             35.74

   INFLOWS - OUTFLOWS =         261587.97     INFLOWS - OUTFLOWS =          -3207.94
             --------                                   --------

 TOTAL STORAGE CHANGE =         231097.24         STORAGE CHANGE =          -3485.52
       --------------                             --------------
         LAND SURFACE =         157683.43           LAND SURFACE =         -26376.35
            SOIL ZONE =        2235827.02              SOIL ZONE =          35093.73
     UNSATURATED ZONE =       -2858923.57       UNSATURATED ZONE =         -12193.69
       SATURATED ZONE =         696509.85         SATURATED ZONE =             -9.22

 OVERALL BUDGET ERROR =          30490.73           BUDGET ERROR =            277.58


  PERCENT DISCREPANCY =              0.95    PERCENT DISCREPANCY =              0.82



1
 SUMMARY VOLUMETRIC BUDGET FOR GSFLOW 
 DATE: 02 10 1991              CUMULATIVE TIME STEP:      10
 MODFLOW STRESS PERIOD      6     CURRENT TIME STEP:     133     ITERATIONS:       5

 -----------------------------------------------------------------------------------

   CUMULATIVE VOLUMES               L**3   RATES FOR THIS TIME STEP           L**3/T
   ------------------                      ------------------------

                                     IN                                         IN
                                     --                                         --
        PRECIPITATION =        3510173.01          PRECIPITATION =                  
           STREAMFLOW =                               STREAMFLOW =                  
     GW BOUNDARY FLOW =             17.47       GW BOUNDARY FLOW =              0.63


                                    OUT                                        OUT
                                    ---                                        ---
   EVAPOTRANSPIRATION =        1800556.28     EVAPOTRANSPIRATION =          25669.18
           STREAMFLOW =        1415562.23             STREAMFLOW =          12144.58
     GW BOUNDARY FLOW =           4770.66       GW BOUNDARY FLOW =             35.72

   INFLOWS - OUTFLOWS =         289301.31     INFLOWS - OUTFLOWS =         -37848.86
             --------                                   --------

 TOTAL STORAGE CHANGE =         256248.96         STORAGE CHANGE =         -37765.52
       --------------                             --------------
         LAND SURFACE =          75877.11           LAND SURFACE =          -8469.89
            SOIL ZONE =        2427824.72              SOIL ZONE =         -17088.67
     UNSATURATED ZONE =       -2942085.88       UNSATURATED ZONE =         -11686.12
       SATURATED ZONE =         694632.40         SATURATED ZONE =           -520.85

 OVERALL BUDGET ERROR =          33052.35           BUDGET ERROR =            -83.34


  PERCENT DISCREPANCY =              0.95    PERCENT DISCREPANCY =             -0.22



1
 SUMMARY VOLUMETRIC BUDGET FOR GSFLOW 
 DATE: 02 17 1991              CUMULATIVE TIME STEP:      17
 MODFLOW STRESS PERIOD      6     CURRENT TIME STEP:     140     ITERATIONS:       5

 -----------------------------------------------------------------------------------

   CUMULATIVE VOLUMES               L**3   RATES FOR THIS TIME STEP           L**3/T
   ------------------                      ------------------------

                                     IN                                         IN
                                     --                                         --
        PRECIPITATION =        3510173.01          PRECIPITATION =                  
           STREAMFLOW =                               STREAMFLOW =                  
     GW BOUNDARY FLOW =             22.13       GW BOUNDARY FLOW =              0.70


                                    OUT                                        OUT
                                    ---                                        ---
   EVAPOTRANSPIRATION =        2043616.51     EVAPOTRANSPIRATION =          23705.68
           STREAMFLOW =        1500171.56             STREAMFLOW =          12092.91
     GW BOUNDARY FLOW =           5020.59       GW BOUNDARY FLOW =             35.68

   INFLOWS - OUTFLOWS =         -38613.51     INFLOWS - OUTFLOWS =         -35833.57
             --------                                   --------

 TOTAL STORAGE CHANGE =         -70860.97         STORAGE CHANGE =         -35753.91
       --------------                             --------------
         LAND SURFACE =          17890.99           LAND SURFACE =          -1143.67
            SOIL ZONE =        2244179.62              SOIL ZONE =         -22459.81
     UNSATURATED ZONE =       -3021686.22       UNSATURATED ZONE =         -11090.15
       SATURATED ZONE =         688753.95         SATURATED ZONE =          -1060.30

 OVERALL BUDGET ERROR =          32247.46           BUDGET ERROR =            -79.65


  PERCENT DISCREPANCY =              0.90    PERCENT DISCREPANCY =             -0.22



1
 SUMMARY VOLUMETRIC BUDGET FOR GSFLOW 
 DATE: 02 24 1991              CUMULATIVE TIME STEP:      24
 MODFLOW STRESS PERIOD      6     CURRENT TIME STEP:     147     ITERATIONS:       5

 -----------------------------------------------------------------------------------

   CUMULATIVE VOLUMES               L**3   RATES FOR THIS TIME STEP           L**3/T
   ------------------                      ------------------------

                                     IN                                         IN
                                     --                                         --
        PRECIPITATION =        3510173.01          PRECIPITATION =                  
           STREAMFLOW =                               STREAMFLOW =                  
     GW BOUNDARY FLOW =             27.28       GW BOUNDARY FLOW =              0.76


                                    OUT                                        OUT
                                    ---                                        ---
   EVAPOTRANSPIRATION =        2257057.53     EVAPOTRANSPIRATION =          21630.24
           STREAMFLOW =        1584517.45             STREAMFLOW =          12050.66
     GW BOUNDARY FLOW =           5269.65       GW BOUNDARY FLOW =             35.51

   INFLOWS - OUTFLOWS =        -336644.34     INFLOWS - OUTFLOWS =         -33715.65
             --------                                   --------

 TOTAL STORAGE CHANGE =        -368167.74         STORAGE CHANGE =         -33639.67
       --------------                             --------------
         LAND SURFACE =           7435.72           LAND SURFACE =           -217.69
            SOIL ZONE =        2042770.62              SOIL ZONE =         -21186.95
     UNSATURATED ZONE =       -3097669.74       UNSATURATED ZONE =         -10681.71
       SATURATED ZONE =         679294.89         SATURATED ZONE =          -1553.33

 OVERALL BUDGET ERROR =          31523.40           BUDGET ERROR =            -75.98


  PERCENT DISCREPANCY =              0.82    PERCENT DISCREPANCY =             -0.23



1
 SUMMARY VOLUMETRIC BUDGET FOR GSFLOW 
 DATE: 03 03 1991              CUMULATIVE TIME STEP:       3
 MODFLOW STRESS PERIOD      7     CURRENT TIME STEP:     154     ITERATIONS:       5

 -----------------------------------------------------------------------------------

   CUMULATIVE VOLUMES               L**3   RATES FOR THIS TIME STEP           L**3/T
   ------------------                      ------------------------

                                     IN                                         IN
                                     --                                         --
        PRECIPITATION =        6220189.63          PRECIPITATION =        1243187.24
           STREAMFLOW =                               STREAMFLOW =                  
     GW BOUNDARY FLOW =             32.87       GW BOUNDARY FLOW =              0.83


                                    OUT                                        OUT
                                    ---                                        ---
   EVAPOTRANSPIRATION =        2409139.80     EVAPOTRANSPIRATION =           8457.04
           STREAMFLOW =        1668811.69             STREAMFLOW =          12316.97
     GW BOUNDARY FLOW =           5517.52       GW BOUNDARY FLOW =             35.34

   INFLOWS - OUTFLOWS =        2136753.49     INFLOWS - OUTFLOWS =        1222378.73
             --------                                   --------

 TOTAL STORAGE CHANGE =        2098070.14         STORAGE CHANGE =        1214758.21
       --------------                             --------------
         LAND SURFACE =        2352761.88           LAND SURFACE =         894135.84
            SOIL ZONE =        2250825.90              SOIL ZONE =         333303.25
     UNSATURATED ZONE =       -3170673.43       UNSATURATED ZONE =         -10251.81
       SATURATED ZONE =         665154.93         SATURATED ZONE =          -2429.09

 OVERALL BUDGET ERROR =          38683.35           BUDGET ERROR =           7620.51


  PERCENT DISCREPANCY =              0.62    PERCENT DISCREPANCY =              0.61



1
 SUMMARY VOLUMETRIC BUDGET FOR GSFLOW 
 DATE: 03 10 1991              CUMULATIVE TIME STEP:      10
 MODFLOW STRESS PERIOD      7     CURRENT TIME STEP:     161     ITERATIONS:       5

 -----------------------------------------------------------------------------------

   CUMULATIVE VOLUMES               L**3   RATES FOR THIS TIME STEP           L**3/T
   ------------------                      ------------------------

                                     IN                                         IN
                                     --                                         --
        PRECIPITATION =        8746030.42          PRECIPITATION =          32888.55
           STREAMFLOW =                               STREAMFLOW =                  
     GW BOUNDARY FLOW =             38.90       GW BOUNDARY FLOW =              0.89


                                    OUT                                        OUT
                                    ---                                        ---
   EVAPOTRANSPIRATION =        2482435.39     EVAPOTRANSPIRATION =           8863.51
           STREAMFLOW =        1848163.63             STREAMFLOW =          22012.84
     GW BOUNDARY FLOW =           5766.38       GW BOUNDARY FLOW =             35.44

   INFLOWS - OUTFLOWS =        4409703.92     INFLOWS - OUTFLOWS =           1977.65
             --------                                   --------

 TOTAL STORAGE CHANGE =        4356538.43         STORAGE CHANGE =           1694.26
       --------------                             --------------
         LAND SURFACE =        2523463.28           LAND SURFACE =         -14137.08
            SOIL ZONE =        4365036.97              SOIL ZONE =          19093.63
     UNSATURATED ZONE =       -3191561.01       UNSATURATED ZONE =          -1931.50
       SATURATED ZONE =         659598.13         SATURATED ZONE =          -1330.82

 OVERALL BUDGET ERROR =          53165.50           BUDGET ERROR =            283.38


  PERCENT DISCREPANCY =              0.61    PERCENT DISCREPANCY =              0.87



1
 SUMMARY VOLUMETRIC BUDGET FOR GSFLOW 
 DATE: 03 17 1991              CUMULATIVE TIME STEP:      17
 MODFLOW STRESS PERIOD      7     CURRENT TIME STEP:     168     ITERATIONS:       5

 -----------------------------------------------------------------------------------

   CUMULATIVE VOLUMES               L**3   RATES FOR THIS TIME STEP           L**3/T
   ------------------                      ------------------------

                                     IN                                         IN
                                     --                                         --
        PRECIPITATION =        9897129.71          PRECIPITATION =         157865.04
           STREAMFLOW =                               STREAMFLOW =                  
     GW BOUNDARY FLOW =             45.34       GW BOUNDARY FLOW =              0.95


                                    OUT                                        OUT
                                    ---                                        ---
   EVAPOTRANSPIRATION =        2510274.22     EVAPOTRANSPIRATION =           8079.77
           STREAMFLOW =        1990287.93             STREAMFLOW =          19686.71
     GW BOUNDARY FLOW =           6013.65       GW BOUNDARY FLOW =             35.25

   INFLOWS - OUTFLOWS =        5390599.26     INFLOWS - OUTFLOWS =         130064.27
             --------                                   --------

 TOTAL STORAGE CHANGE =        5337539.20         STORAGE CHANGE =         130109.03
       --------------                             --------------
         LAND SURFACE =        3672302.31           LAND SURFACE =         157496.61
            SOIL ZONE =        4226665.06              SOIL ZONE =         -22612.99
     UNSATURATED ZONE =       -3208605.69       UNSATURATED ZONE =          -2719.95
       SATURATED ZONE =         647176.25         SATURATED ZONE =          -2054.67

 OVERALL BUDGET ERROR =          53060.06           BUDGET ERROR =            -44.76


  PERCENT DISCREPANCY =              0.54    PERCENT DISCREPANCY =             -0.03



1
 SUMMARY VOLUMETRIC BUDGET FOR GSFLOW 
 DATE: 03 24 1991              CUMULATIVE TIME STEP:      24
 MODFLOW STRESS PERIOD      7     CURRENT TIME STEP:     175     ITERATIONS:       5

 -----------------------------------------------------------------------------------

   CUMULATIVE VOLUMES               L**3   RATES FOR THIS TIME STEP           L**3/T
   ------------------                      ------------------------

                                     IN                                         IN
                                     --                                         --
        PRECIPITATION =        1.1673D+07          PRECIPITATION =        1230031.83
           STREAMFLOW =                               STREAMFLOW =                  
     GW BOUNDARY FLOW =             52.19       GW BOUNDARY FLOW =              1.00


                                    OUT                                        OUT
                                    ---                                        ---
   EVAPOTRANSPIRATION =        2549100.51     EVAPOTRANSPIRATION =           4663.50
           STREAMFLOW =        2124215.19             STREAMFLOW =          18849.50
     GW BOUNDARY FLOW =           6259.72       GW BOUNDARY FLOW =             35.09

   INFLOWS - OUTFLOWS =        6993588.27     INFLOWS - OUTFLOWS =        1206484.75
             --------                                   --------

 TOTAL STORAGE CHANGE =        6940472.83         STORAGE CHANGE =        1206487.63
       --------------                             --------------
         LAND SURFACE =        5426161.22           LAND SURFACE =        1230031.83
            SOIL ZONE =        4114422.72              SOIL ZONE =         -17593.05
     UNSATURATED ZONE =       -3231203.44       UNSATURATED ZONE =          -3466.14
       SATURATED ZONE =         631090.86         SATURATED ZONE =          -2485.05

 OVERALL BUDGET ERROR =          53115.44           BUDGET ERROR =             -2.87


  PERCENT DISCREPANCY =              0.46    PERCENT DISCREPANCY =             -0.00



1
 SUMMARY VOLUMETRIC BUDGET FOR GSFLOW 
 DATE: 03 31 1991              CUMULATIVE TIME STEP:      31
 MODFLOW STRESS PERIOD      7     CURRENT TIME STEP:     182     ITERATIONS:       6

 -----------------------------------------------------------------------------------

   CUMULATIVE VOLUMES               L**3   RATES FOR THIS TIME STEP           L**3/T
   ------------------                      ------------------------

                                     IN                                         IN
                                     --                                         --
        PRECIPITATION =        1.2495D+07          PRECIPITATION =                  
           STREAMFLOW =                               STREAMFLOW =                  
     GW BOUNDARY FLOW =             59.42       GW BOUNDARY FLOW =              1.06


                                    OUT                                        OUT
                                    ---                                        ---
   EVAPOTRANSPIRATION =        2670864.98     EVAPOTRANSPIRATION =          48055.46
           STREAMFLOW =        2258550.89             STREAMFLOW =          22298.49
     GW BOUNDARY FLOW =           6504.82       GW BOUNDARY FLOW =             35.02

   INFLOWS - OUTFLOWS =        7559464.03     INFLOWS - OUTFLOWS =         -70387.92
             --------                                   --------

 TOTAL STORAGE CHANGE =        7505132.79         STORAGE CHANGE =         -71311.06
       --------------                             --------------
         LAND SURFACE =        5977198.26           LAND SURFACE =        -148137.48
            SOIL ZONE =        4170454.60              SOIL ZONE =          81856.46
     UNSATURATED ZONE =       -3255399.55       UNSATURATED ZONE =          -2439.21
       SATURATED ZONE =         612877.79         SATURATED ZONE =          -2590.85

 OVERALL BUDGET ERROR =          54331.24           BUDGET ERROR =            923.14


  PERCENT DISCREPANCY =              0.44    PERCENT DISCREPANCY =              1.30



1
 SUMMARY VOLUMETRIC BUDGET FOR GSFLOW 
 DATE: 04 07 1991              CUMULATIVE TIME STEP:       7
 MODFLOW STRESS PERIOD      8     CURRENT TIME STEP:     189     ITERATIONS:       7

 -----------------------------------------------------------------------------------

   CUMULATIVE VOLUMES               L**3   RATES FOR THIS TIME STEP           L**3/T
   ------------------                      ------------------------

                                     IN                                         IN
                                     --                                         --
        PRECIPITATION =        1.3018D+07          PRECIPITATION =                  
           STREAMFLOW =                               STREAMFLOW =                  
     GW BOUNDARY FLOW =             67.03       GW BOUNDARY FLOW =              1.11


                                    OUT                                        OUT
                                    ---                                        ---
   EVAPOTRANSPIRATION =        2978968.90     EVAPOTRANSPIRATION =          15960.30
           STREAMFLOW =        2580231.48             STREAMFLOW =          64413.29
     GW BOUNDARY FLOW =           6752.26       GW BOUNDARY FLOW =             35.61

   INFLOWS - OUTFLOWS =        7451851.13     INFLOWS - OUTFLOWS =         -80408.09
             --------                                   --------

 TOTAL STORAGE CHANGE =        7388295.65         STORAGE CHANGE =         -80924.02
       --------------                             --------------
         LAND SURFACE =        4335933.24           LAND SURFACE =         -73164.41
            SOIL ZONE =        5686399.89              SOIL ZONE =         -15074.59
     UNSATURATED ZONE =       -3231831.90       UNSATURATED ZONE =           9282.71
       SATURATED ZONE =         597792.46         SATURATED ZONE =          -1967.77

 OVERALL BUDGET ERROR =          63555.48           BUDGET ERROR =            515.93


  PERCENT DISCREPANCY =              0.49    PERCENT DISCREPANCY =              0.64



1
 SUMMARY VOLUMETRIC BUDGET FOR GSFLOW 
 DATE: 04 14 1991              CUMULATIVE TIME STEP:      14
 MODFLOW STRESS PERIOD      8     CURRENT TIME STEP:     196     ITERATIONS:       7

 -----------------------------------------------------------------------------------

   CUMULATIVE VOLUMES               L**3   RATES FOR THIS TIME STEP           L**3/T
   ------------------                      ------------------------

                                     IN                                         IN
                                     --                                         --
        PRECIPITATION =        1.3018D+07          PRECIPITATION =                  
           STREAMFLOW =                               STREAMFLOW =                  
     GW BOUNDARY FLOW =             74.95       GW BOUNDARY FLOW =              1.15


                                    OUT                                        OUT
                                    ---                                        ---
   EVAPOTRANSPIRATION =        3163084.32     EVAPOTRANSPIRATION =          42038.19
           STREAMFLOW =        3077655.80             STREAMFLOW =          75772.27
     GW BOUNDARY FLOW =           7001.61       GW BOUNDARY FLOW =             35.63

   INFLOWS - OUTFLOWS =        6770069.96     INFLOWS - OUTFLOWS =        -117844.94
             --------                                   --------

 TOTAL STORAGE CHANGE =        6703208.21         STORAGE CHANGE =        -118727.42
       --------------                             --------------
         LAND SURFACE =        3672284.11           LAND SURFACE =        -192335.10
            SOIL ZONE =        5615876.99              SOIL ZONE =          66892.09
     UNSATURATED ZONE =       -3169994.93       UNSATURATED ZONE =           8376.45
       SATURATED ZONE =         585039.77         SATURATED ZONE =          -1660.91

 OVERALL BUDGET ERROR =          66861.74           BUDGET ERROR =            882.48


  PERCENT DISCREPANCY =              0.51    PERCENT DISCREPANCY =              0.75



1
 SUMMARY VOLUMETRIC BUDGET FOR GSFLOW 
 DATE: 04 21 1991              CUMULATIVE TIME STEP:      21
 MODFLOW STRESS PERIOD      8     CURRENT TIME STEP:     203     ITERATIONS:       9

 -----------------------------------------------------------------------------------

   CUMULATIVE VOLUMES               L**3   RATES FOR THIS TIME STEP           L**3/T
   ------------------                      ------------------------

                                     IN                                         IN
                                     --                                         --
        PRECIPITATION =        1.3034D+07          PRECIPITATION =                  
           STREAMFLOW =                               STREAMFLOW =                  
     GW BOUNDARY FLOW =             83.17       GW BOUNDARY FLOW =              1.19


                                    OUT                                        OUT
                                    ---                                        ---
   EVAPOTRANSPIRATION =        3416725.18     EVAPOTRANSPIRATION =          46896.67
           STREAMFLOW =        3650240.87             STREAMFLOW =          93506.57
     GW BOUNDARY FLOW =           7251.19       GW BOUNDARY FLOW =             35.76

   INFLOWS - OUTFLOWS =        5959928.03     INFLOWS - OUTFLOWS =        -140437.81
             --------                                   --------

 TOTAL STORAGE CHANGE =        5888445.44         STORAGE CHANGE =        -141191.23
       --------------                             --------------
         LAND SURFACE =        2500870.94           LAND SURFACE =        -216968.59
            SOIL ZONE =        5920066.38              SOIL ZONE =          66506.11
     UNSATURATED ZONE =       -3106346.86       UNSATURATED ZONE =          10621.64
       SATURATED ZONE =         573852.36         SATURATED ZONE =          -1350.44

 OVERALL BUDGET ERROR =          71482.58           BUDGET ERROR =            753.42


  PERCENT DISCREPANCY =              0.55    PERCENT DISCREPANCY =              0.54



1
 SUMMARY VOLUMETRIC BUDGET FOR GSFLOW 
 DATE: 04 28 1991              CUMULATIVE TIME STEP:      28
 MODFLOW STRESS PERIOD      8     CURRENT TIME STEP:     210     ITERATIONS:       6

 -----------------------------------------------------------------------------------

   CUMULATIVE VOLUMES               L**3   RATES FOR THIS TIME STEP           L**3/T
   ------------------                      ------------------------

                                     IN                                         IN
                                     --                                         --
        PRECIPITATION =        1.3303D+07          PRECIPITATION =                  
           STREAMFLOW =                               STREAMFLOW =                  
     GW BOUNDARY FLOW =             91.65       GW BOUNDARY FLOW =              1.23


                                    OUT                                        OUT
                                    ---                                        ---
   EVAPOTRANSPIRATION =        3685152.93     EVAPOTRANSPIRATION =          58233.50
           STREAMFLOW =        4321534.52             STREAMFLOW =          95213.53
     GW BOUNDARY FLOW =           7501.34       GW BOUNDARY FLOW =             35.69

   INFLOWS - OUTFLOWS =        5289333.36     INFLOWS - OUTFLOWS =        -153481.49
             --------                                   --------

 TOTAL STORAGE CHANGE =        5214175.54         STORAGE CHANGE =        -153735.80
       --------------                             --------------
         LAND SURFACE =        1748447.64           LAND SURFACE =        -137153.52
            SOIL ZONE =        5929478.35              SOIL ZONE =         -25936.54
     UNSATURATED ZONE =       -3030743.85       UNSATURATED ZONE =          10359.40
       SATURATED ZONE =         566990.40         SATURATED ZONE =          -1005.19

 OVERALL BUDGET ERROR =          75157.82           BUDGET ERROR =            254.31


  PERCENT DISCREPANCY =              0.57    PERCENT DISCREPANCY =              0.17



1
 SUMMARY VOLUMETRIC BUDGET FOR GSFLOW 
 DATE: 05 05 1991              CUMULATIVE TIME STEP:       5
 MODFLOW STRESS PERIOD      9     CURRENT TIME STEP:     217     ITERATIONS:      70

 -----------------------------------------------------------------------------------

   CUMULATIVE VOLUMES               L**3   RATES FOR THIS TIME STEP           L**3/T
   ------------------                      ------------------------

                                     IN                                         IN
                                     --                                         --
        PRECIPITATION =        1.3510D+07          PRECIPITATION =                  
           STREAMFLOW =                               STREAMFLOW =                  
     GW BOUNDARY FLOW =            100.40       GW BOUNDARY FLOW =              1.27


                                    OUT                                        OUT
                                    ---                                        ---
   EVAPOTRANSPIRATION =        4062689.68     EVAPOTRANSPIRATION =          90413.56
           STREAMFLOW =        4930111.73             STREAMFLOW =          87071.46
     GW BOUNDARY FLOW =           7749.95       GW BOUNDARY FLOW =             35.45

   INFLOWS - OUTFLOWS =        4509257.17     INFLOWS - OUTFLOWS =        -177519.20
             --------                                   --------

 TOTAL STORAGE CHANGE =        4432612.74         STORAGE CHANGE =        -177615.01
       --------------                             --------------
         LAND SURFACE =        1036420.07           LAND SURFACE =        -150153.36
            SOIL ZONE =        5800892.30              SOIL ZONE =         -36023.98
     UNSATURATED ZONE =       -2966035.10       UNSATURATED ZONE =           8059.72
       SATURATED ZONE =         561332.04         SATURATED ZONE =            502.55

 OVERALL BUDGET ERROR =          76644.43           BUDGET ERROR =             95.81


  PERCENT DISCREPANCY =              0.57    PERCENT DISCREPANCY =              0.05



1
 SUMMARY VOLUMETRIC BUDGET FOR GSFLOW 
 DATE: 05 12 1991              CUMULATIVE TIME STEP:      12
 MODFLOW STRESS PERIOD      9     CURRENT TIME STEP:     224     ITERATIONS:       7

 -----------------------------------------------------------------------------------

   CUMULATIVE VOLUMES               L**3   RATES FOR THIS TIME STEP           L**3/T
   ------------------                      ------------------------

                                     IN                                         IN
                                     --                                         --
        PRECIPITATION =        1.4029D+07          PRECIPITATION =                  
           STREAMFLOW =                               STREAMFLOW =                  
     GW BOUNDARY FLOW =            109.42       GW BOUNDARY FLOW =              1.30


                                    OUT                                        OUT
                                    ---                                        ---
   EVAPOTRANSPIRATION =        4458313.79     EVAPOTRANSPIRATION =          68953.88
           STREAMFLOW =        5497955.74             STREAMFLOW =          84268.44
     GW BOUNDARY FLOW =           7996.84       GW BOUNDARY FLOW =             35.23

   INFLOWS - OUTFLOWS =        4065065.20     INFLOWS - OUTFLOWS =        -153256.24
             --------                                   --------

 TOTAL STORAGE CHANGE =        3986475.02         STORAGE CHANGE =        -153138.12
       --------------                             --------------
         LAND SURFACE =         579124.41           LAND SURFACE =        -205427.93
            SOIL ZONE =        5760625.74              SOIL ZONE =          45106.17
     UNSATURATED ZONE =       -2905648.39       UNSATURATED ZONE =           8434.60
       SATURATED ZONE =         552369.41         SATURATED ZONE =          -1251.02

 OVERALL BUDGET ERROR =          78590.18           BUDGET ERROR =           -118.13


  PERCENT DISCREPANCY =              0.56    PERCENT DISCREPANCY =             -0.08



1
 SUMMARY VOLUMETRIC BUDGET FOR GSFLOW 
 DATE: 05 19 1991              CUMULATIVE TIME STEP:      19
 MODFLOW STRESS PERIOD      9     CURRENT TIME STEP:     231     ITERATIONS:       7

 -----------------------------------------------------------------------------------

   CUMULATIVE VOLUMES               L**3   RATES FOR THIS TIME STEP           L**3/T
   ------------------                      ------------------------

                                     IN                                         IN
                                     --                                         --
        PRECIPITATION =        1.4365D+07          PRECIPITATION =                  
           STREAMFLOW =                               STREAMFLOW =                  
     GW BOUNDARY FLOW =            118.71       GW BOUNDARY FLOW =              1.34


                                    OUT                                        OUT
                                    ---                                        ---
   EVAPOTRANSPIRATION =        4896988.95     EVAPOTRANSPIRATION =          20444.02
           STREAMFLOW =        5990468.54             STREAMFLOW =          62353.30
     GW BOUNDARY FLOW =           8241.52       GW BOUNDARY FLOW =             34.77

   INFLOWS - OUTFLOWS =        3469798.02     INFLOWS - OUTFLOWS =         -82830.74
             --------                                   --------

 TOTAL STORAGE CHANGE =        3390162.84         STORAGE CHANGE =         -82801.40
       --------------                             --------------
         LAND SURFACE =         228252.15           LAND SURFACE =         -22354.64
            SOIL ZONE =        5477627.54              SOIL ZONE =         -64491.55
     UNSATURATED ZONE =       -2858541.87       UNSATURATED ZONE =           5420.91
       SATURATED ZONE =         542820.72         SATURATED ZONE =          -1376.18

 OVERALL BUDGET ERROR =          79635.18           BUDGET ERROR =            -29.34


  PERCENT DISCREPANCY =              0.56    PERCENT DISCREPANCY =             -0.04



1
 SUMMARY VOLUMETRIC BUDGET FOR GSFLOW 
 DATE: 05 26 1991              CUMULATIVE TIME STEP:      26
 MODFLOW STRESS PERIOD      9     CURRENT TIME STEP:     238     ITERATIONS:       6

 -----------------------------------------------------------------------------------

   CUMULATIVE VOLUMES               L**3   RATES FOR THIS TIME STEP           L**3/T
   ------------------                      ------------------------

                                     IN                                         IN
                                     --                                         --
        PRECIPITATION =        1.4426D+07          PRECIPITATION =                  
           STREAMFLOW =                               STREAMFLOW =                  
     GW BOUNDARY FLOW =            128.27       GW BOUNDARY FLOW =              1.38


                                    OUT                                        OUT
                                    ---                                        ---
   EVAPOTRANSPIRATION =        5581634.17     EVAPOTRANSPIRATION =          76900.78
           STREAMFLOW =        6344316.78             STREAMFLOW =          37371.68
     GW BOUNDARY FLOW =           8482.98       GW BOUNDARY FLOW =             34.21

   INFLOWS - OUTFLOWS =        2492191.95     INFLOWS - OUTFLOWS =        -114305.28
             --------                                   --------

 TOTAL STORAGE CHANGE =        2412556.83         STORAGE CHANGE =        -114416.34
       --------------                             --------------
         LAND SURFACE =          55233.90           LAND SURFACE =          -8157.37
            SOIL ZONE =        4665614.55              SOIL ZONE =        -103906.70
     UNSATURATED ZONE =       -2839279.31       UNSATURATED ZONE =           -285.29
       SATURATED ZONE =         530982.95         SATURATED ZONE =          -2067.04

 OVERALL BUDGET ERROR =          79635.13           BUDGET ERROR =            111.06


  PERCENT DISCREPANCY =              0.55    PERCENT DISCREPANCY =              0.10



1
 SUMMARY VOLUMETRIC BUDGET FOR GSFLOW 
 DATE: 06 02 1991              CUMULATIVE TIME STEP:       2
 MODFLOW STRESS PERIOD     10     CURRENT TIME STEP:     245     ITERATIONS:       6

 -----------------------------------------------------------------------------------

   CUMULATIVE VOLUMES               L**3   RATES FOR THIS TIME STEP           L**3/T
   ------------------                      ------------------------

                                     IN                                         IN
                                     --                                         --
        PRECIPITATION =        1.4671D+07          PRECIPITATION =                  
           STREAMFLOW =                               STREAMFLOW =                  
     GW BOUNDARY FLOW =            138.14       GW BOUNDARY FLOW =              1.43


                                    OUT                                        OUT
                                    ---                                        ---
   EVAPOTRANSPIRATION =        6170818.24     EVAPOTRANSPIRATION =         127566.24
           STREAMFLOW =        6571336.42             STREAMFLOW =          28353.59
     GW BOUNDARY FLOW =           8721.14       GW BOUNDARY FLOW =             33.88

   INFLOWS - OUTFLOWS =        1920237.14     INFLOWS - OUTFLOWS =        -155952.28
             --------                                   --------

 TOTAL STORAGE CHANGE =        1841020.78         STORAGE CHANGE =        -155746.78
       --------------                             --------------
         LAND SURFACE =          19760.70           LAND SURFACE =          -4094.13
            SOIL ZONE =        4160919.62              SOIL ZONE =        -145900.98
     UNSATURATED ZONE =       -2853320.38       UNSATURATED ZONE =          -2951.67
       SATURATED ZONE =         513655.64         SATURATED ZONE =          -2800.06

 OVERALL BUDGET ERROR =          79216.36           BUDGET ERROR =           -205.50


  PERCENT DISCREPANCY =              0.54    PERCENT DISCREPANCY =             -0.13



1
 SUMMARY VOLUMETRIC BUDGET FOR GSFLOW 
 DATE: 06 09 1991              CUMULATIVE TIME STEP:       9
 MODFLOW STRESS PERIOD     10     CURRENT TIME STEP:     252     ITERATIONS:       7

 -----------------------------------------------------------------------------------

   CUMULATIVE VOLUMES               L**3   RATES FOR THIS TIME STEP           L**3/T
   ------------------                      ------------------------

                                     IN                                         IN
                                     --                                         --
        PRECIPITATION =        1.4671D+07          PRECIPITATION =                  
           STREAMFLOW =                               STREAMFLOW =                  
     GW BOUNDARY FLOW =            148.30       GW BOUNDARY FLOW =              1.47


                                    OUT                                        OUT
                                    ---                                        ---
   EVAPOTRANSPIRATION =        6959297.76     EVAPOTRANSPIRATION =         172470.54
           STREAMFLOW =        6729667.55             STREAMFLOW =          19085.73
     GW BOUNDARY FLOW =           8956.79       GW BOUNDARY FLOW =             33.52

   INFLOWS - OUTFLOWS =         973201.00     INFLOWS - OUTFLOWS =        -191588.32
             --------                                   --------

 TOTAL STORAGE CHANGE =         895856.20         STORAGE CHANGE =        -190840.10
       --------------                             --------------
         LAND SURFACE =           3957.39           LAND SURFACE =          -2186.13
            SOIL ZONE =        3289682.95              SOIL ZONE =        -178784.71
     UNSATURATED ZONE =       -2888193.17       UNSATURATED ZONE =          -6053.55
       SATURATED ZONE =         490403.39         SATURATED ZONE =          -3815.78

 OVERALL BUDGET ERROR =          77344.81           BUDGET ERROR =           -748.22


  PERCENT DISCREPANCY =              0.53    PERCENT DISCREPANCY =             -0.39



1
 SUMMARY VOLUMETRIC BUDGET FOR GSFLOW 
 DATE: 06 16 1991              CUMULATIVE TIME STEP:      16
 MODFLOW STRESS PERIOD     10     CURRENT TIME STEP:     259     ITERATIONS:       6

 -----------------------------------------------------------------------------------

   CUMULATIVE VOLUMES               L**3   RATES FOR THIS TIME STEP           L**3/T
   ------------------                      ------------------------

                                     IN                                         IN
                                     --                                         --
        PRECIPITATION =        1.4671D+07          PRECIPITATION =                  
           STREAMFLOW =                               STREAMFLOW =                  
     GW BOUNDARY FLOW =            158.77       GW BOUNDARY FLOW =              1.51


                                    OUT                                        OUT
                                    ---                                        ---
   EVAPOTRANSPIRATION =        7975933.39     EVAPOTRANSPIRATION =         117015.52
           STREAMFLOW =        6837547.58             STREAMFLOW =          13533.35
     GW BOUNDARY FLOW =           9189.45       GW BOUNDARY FLOW =             33.08

   INFLOWS - OUTFLOWS =        -151536.85     INFLOWS - OUTFLOWS =        -130580.44
             --------                                   --------

 TOTAL STORAGE CHANGE =        -223429.34         STORAGE CHANGE =        -129795.79
       --------------                             --------------
         LAND SURFACE =            106.65           LAND SURFACE =            -66.98
            SOIL ZONE =        2287062.16              SOIL ZONE =        -109065.83
     UNSATURATED ZONE =       -2970331.51       UNSATURATED ZONE =         -15800.99
       SATURATED ZONE =         459727.27         SATURATED ZONE =          -4862.05

 OVERALL BUDGET ERROR =          71892.48           BUDGET ERROR =           -784.66


  PERCENT DISCREPANCY =              0.48    PERCENT DISCREPANCY =             -0.60



1
 SUMMARY VOLUMETRIC BUDGET FOR GSFLOW 
 DATE: 06 23 1991              CUMULATIVE TIME STEP:      23
 MODFLOW STRESS PERIOD     10     CURRENT TIME STEP:     266     ITERATIONS:       5

 -----------------------------------------------------------------------------------

   CUMULATIVE VOLUMES               L**3   RATES FOR THIS TIME STEP           L**3/T
   ------------------                      ------------------------

                                     IN                                         IN
                                     --                                         --
        PRECIPITATION =        1.4671D+07          PRECIPITATION =                  
           STREAMFLOW =                               STREAMFLOW =                  
     GW BOUNDARY FLOW =            169.54       GW BOUNDARY FLOW =              1.56


                                    OUT                                        OUT
                                    ---                                        ---
   EVAPOTRANSPIRATION =        8518494.39     EVAPOTRANSPIRATION =          38770.53
           STREAMFLOW =        6924974.01             STREAMFLOW =          12340.61
     GW BOUNDARY FLOW =           9420.30       GW BOUNDARY FLOW =             32.93

   INFLOWS - OUTFLOWS =        -781744.35     INFLOWS - OUTFLOWS =         -51142.51
             --------                                   --------

 TOTAL STORAGE CHANGE =        -849505.81         STORAGE CHANGE =         -50853.98
       --------------                             --------------
         LAND SURFACE =             16.57           LAND SURFACE =             -3.65
            SOIL ZONE =        1811864.57              SOIL ZONE =         -32019.42
     UNSATURATED ZONE =       -3081279.32       UNSATURATED ZONE =         -12855.58
       SATURATED ZONE =         419885.84         SATURATED ZONE =          -5975.38

 OVERALL BUDGET ERROR =          67761.45           BUDGET ERROR =           -288.54


  PERCENT DISCREPANCY =              0.44    PERCENT DISCREPANCY =             -0.57



1
 SUMMARY VOLUMETRIC BUDGET FOR GSFLOW 
 DATE: 06 30 1991              CUMULATIVE TIME STEP:      30
 MODFLOW STRESS PERIOD     10     CURRENT TIME STEP:     273     ITERATIONS:       6

 -----------------------------------------------------------------------------------

   CUMULATIVE VOLUMES               L**3   RATES FOR THIS TIME STEP           L**3/T
   ------------------                      ------------------------

                                     IN                                         IN
[...]
     GW BOUNDARY FLOW =          50958.29       GW BOUNDARY FLOW =             24.10

   INFLOWS - OUTFLOWS =       -1.1445D+07     INFLOWS - OUTFLOWS =         -80507.74
             --------                                   --------

 TOTAL STORAGE CHANGE =       -1.1869D+07         STORAGE CHANGE =         -80362.47
       --------------                             --------------
         LAND SURFACE =         179293.22           LAND SURFACE =         -11102.33
            SOIL ZONE =        1356057.03              SOIL ZONE =         -50529.61
     UNSATURATED ZONE =           -783.75       UNSATURATED ZONE =         -11816.23
       SATURATED ZONE =       -1.3404D+07         SATURATED ZONE =          -6914.85

 OVERALL BUDGET ERROR =         424058.41           BUDGET ERROR =           -145.27


  PERCENT DISCREPANCY =              0.29    PERCENT DISCREPANCY =             -0.18



1
 SUMMARY VOLUMETRIC BUDGET FOR GSFLOW 
 DATE: 09 03 1995              CUMULATIVE TIME STEP:       3
 MODFLOW STRESS PERIOD     61     CURRENT TIME STEP:    1799     ITERATIONS:       7

 -----------------------------------------------------------------------------------

   CUMULATIVE VOLUMES               L**3   RATES FOR THIS TIME STEP           L**3/T
   ------------------                      ------------------------

                                     IN                                         IN
                                     --                                         --
        PRECIPITATION =        1.3351D+08          PRECIPITATION =                  
           STREAMFLOW =                               STREAMFLOW =                  
     GW BOUNDARY FLOW =           5625.53       GW BOUNDARY FLOW =              3.53


                                    OUT                                        OUT
                                    ---                                        ---
   EVAPOTRANSPIRATION =        7.3406D+07     EVAPOTRANSPIRATION =          63229.90
           STREAMFLOW =        7.2031D+07             STREAMFLOW =           6587.06
     GW BOUNDARY FLOW =          51126.59       GW BOUNDARY FLOW =             24.00

   INFLOWS - OUTFLOWS =       -1.1974D+07     INFLOWS - OUTFLOWS =         -69837.44
             --------                                   --------

 TOTAL STORAGE CHANGE =       -1.2397D+07         STORAGE CHANGE =         -69806.56
       --------------                             --------------
         LAND SURFACE =         114525.52           LAND SURFACE =          -7766.54
            SOIL ZONE =        1024568.28              SOIL ZONE =         -43508.84
     UNSATURATED ZONE =         -78071.56       UNSATURATED ZONE =         -10607.46
       SATURATED ZONE =       -1.3459D+07         SATURATED ZONE =          -7924.27

 OVERALL BUDGET ERROR =         423423.66           BUDGET ERROR =            -30.88


  PERCENT DISCREPANCY =              0.29    PERCENT DISCREPANCY =             -0.04



1
 SUMMARY VOLUMETRIC BUDGET FOR GSFLOW 
 DATE: 09 10 1995              CUMULATIVE TIME STEP:      10
 MODFLOW STRESS PERIOD     61     CURRENT TIME STEP:    1806     ITERATIONS:       6

 -----------------------------------------------------------------------------------

   CUMULATIVE VOLUMES               L**3   RATES FOR THIS TIME STEP           L**3/T
   ------------------                      ------------------------

                                     IN                                         IN
                                     --                                         --
        PRECIPITATION =        1.3351D+08          PRECIPITATION =                  
           STREAMFLOW =                               STREAMFLOW =                  
     GW BOUNDARY FLOW =           5650.60       GW BOUNDARY FLOW =              3.62


                                    OUT                                        OUT
                                    ---                                        ---
   EVAPOTRANSPIRATION =        7.3760D+07     EVAPOTRANSPIRATION =          47293.49
           STREAMFLOW =        7.2079D+07             STREAMFLOW =           6660.16
     GW BOUNDARY FLOW =          51294.74       GW BOUNDARY FLOW =             24.01

   INFLOWS - OUTFLOWS =       -1.2375D+07     INFLOWS - OUTFLOWS =         -53974.04
             --------                                   --------

 TOTAL STORAGE CHANGE =       -1.2799D+07         STORAGE CHANGE =         -53956.11
       --------------                             --------------
         LAND SURFACE =          75925.35           LAND SURFACE =          -4673.87
            SOIL ZONE =         784836.97              SOIL ZONE =         -31310.69
     UNSATURATED ZONE =        -150017.45       UNSATURATED ZONE =         -10346.23
       SATURATED ZONE =       -1.3510D+07         SATURATED ZONE =          -7625.85

 OVERALL BUDGET ERROR =         423284.79           BUDGET ERROR =            -17.93


  PERCENT DISCREPANCY =              0.29    PERCENT DISCREPANCY =             -0.03



1
 SUMMARY VOLUMETRIC BUDGET FOR GSFLOW 
 DATE: 09 17 1995              CUMULATIVE TIME STEP:      17
 MODFLOW STRESS PERIOD     61     CURRENT TIME STEP:    1813     ITERATIONS:       7

 -----------------------------------------------------------------------------------

   CUMULATIVE VOLUMES               L**3   RATES FOR THIS TIME STEP           L**3/T
   ------------------                      ------------------------

                                     IN                                         IN
                                     --                                         --
        PRECIPITATION =        1.3351D+08          PRECIPITATION =                  
           STREAMFLOW =                               STREAMFLOW =                  
     GW BOUNDARY FLOW =           5676.30       GW BOUNDARY FLOW =              3.71


                                    OUT                                        OUT
                                    ---                                        ---
   EVAPOTRANSPIRATION =        7.4141D+07     EVAPOTRANSPIRATION =          43107.49
           STREAMFLOW =        7.2118D+07             STREAMFLOW =           5807.91
     GW BOUNDARY FLOW =          51462.06       GW BOUNDARY FLOW =             23.92

   INFLOWS - OUTFLOWS =       -1.2796D+07     INFLOWS - OUTFLOWS =         -48935.62
             --------                                   --------

 TOTAL STORAGE CHANGE =       -1.3219D+07         STORAGE CHANGE =         -48913.11
       --------------                             --------------
         LAND SURFACE =          44186.54           LAND SURFACE =          -3043.17
            SOIL ZONE =         541648.11              SOIL ZONE =         -26379.56
     UNSATURATED ZONE =        -226473.90       UNSATURATED ZONE =         -10719.36
       SATURATED ZONE =       -1.3579D+07         SATURATED ZONE =          -8771.55

 OVERALL BUDGET ERROR =         423081.64           BUDGET ERROR =            -22.50


  PERCENT DISCREPANCY =              0.29    PERCENT DISCREPANCY =             -0.05



1
 SUMMARY VOLUMETRIC BUDGET FOR GSFLOW 
 DATE: 09 24 1995              CUMULATIVE TIME STEP:      24
 MODFLOW STRESS PERIOD     61     CURRENT TIME STEP:    1820     ITERATIONS:       6

 -----------------------------------------------------------------------------------

   CUMULATIVE VOLUMES               L**3   RATES FOR THIS TIME STEP           L**3/T
   ------------------                      ------------------------

                                     IN                                         IN
                                     --                                         --
        PRECIPITATION =        1.3351D+08          PRECIPITATION =                  
           STREAMFLOW =                               STREAMFLOW =                  
     GW BOUNDARY FLOW =           5702.61       GW BOUNDARY FLOW =              3.79


                                    OUT                                        OUT
                                    ---                                        ---
   EVAPOTRANSPIRATION =        7.4406D+07     EVAPOTRANSPIRATION =          27403.67
           STREAMFLOW =        7.2159D+07             STREAMFLOW =           6451.44
     GW BOUNDARY FLOW =          51629.51       GW BOUNDARY FLOW =             23.97

   INFLOWS - OUTFLOWS =       -1.3102D+07     INFLOWS - OUTFLOWS =         -33875.29
             --------                                   --------

 TOTAL STORAGE CHANGE =       -1.3525D+07         STORAGE CHANGE =         -33863.23
       --------------                             --------------
         LAND SURFACE =          28055.76           LAND SURFACE =          -1559.79
            SOIL ZONE =         386235.54              SOIL ZONE =         -15397.51
     UNSATURATED ZONE =        -298525.92       UNSATURATED ZONE =          -9219.47
       SATURATED ZONE =       -1.3641D+07         SATURATED ZONE =          -7686.99

 OVERALL BUDGET ERROR =         422935.24           BUDGET ERROR =            -12.06


  PERCENT DISCREPANCY =              0.29    PERCENT DISCREPANCY =             -0.04



1
 SUMMARY VOLUMETRIC BUDGET FOR GSFLOW 
 DATE: 10 01 1995              CUMULATIVE TIME STEP:       1
 MODFLOW STRESS PERIOD     62     CURRENT TIME STEP:    1827     ITERATIONS:       6

 -----------------------------------------------------------------------------------

   CUMULATIVE VOLUMES               L**3   RATES FOR THIS TIME STEP           L**3/T
   ------------------                      ------------------------

                                     IN                                         IN
                                     --                                         --
        PRECIPITATION =        1.3351D+08          PRECIPITATION =                  
           STREAMFLOW =                               STREAMFLOW =                  
     GW BOUNDARY FLOW =           5729.48       GW BOUNDARY FLOW =              3.87


                                    OUT                                        OUT
                                    ---                                        ---
   EVAPOTRANSPIRATION =        7.4521D+07     EVAPOTRANSPIRATION =          16745.81
           STREAMFLOW =        7.2211D+07             STREAMFLOW =           7466.17
     GW BOUNDARY FLOW =          51797.85       GW BOUNDARY FLOW =             24.06

   INFLOWS - OUTFLOWS =       -1.3270D+07     INFLOWS - OUTFLOWS =         -24232.17
             --------                                   --------

 TOTAL STORAGE CHANGE =       -1.3693D+07         STORAGE CHANGE =         -24226.95
       --------------                             --------------
         LAND SURFACE =          22241.70           LAND SURFACE =           -699.89
            SOIL ZONE =         323931.01              SOIL ZONE =          -9104.40
     UNSATURATED ZONE =        -356274.35       UNSATURATED ZONE =          -8084.88
       SATURATED ZONE =       -1.3683D+07         SATURATED ZONE =          -6338.31

 OVERALL BUDGET ERROR =         422894.99           BUDGET ERROR =             -5.22


  PERCENT DISCREPANCY =              0.29    PERCENT DISCREPANCY =             -0.02



1
 SUMMARY VOLUMETRIC BUDGET FOR GSFLOW 
 DATE: 10 08 1995              CUMULATIVE TIME STEP:       8
 MODFLOW STRESS PERIOD     62     CURRENT TIME STEP:    1834     ITERATIONS:       6

 -----------------------------------------------------------------------------------

   CUMULATIVE VOLUMES               L**3   RATES FOR THIS TIME STEP           L**3/T
   ------------------                      ------------------------

                                     IN                                         IN
                                     --                                         --
        PRECIPITATION =        1.3351D+08          PRECIPITATION =                  
           STREAMFLOW =                               STREAMFLOW =                  
     GW BOUNDARY FLOW =           5756.90       GW BOUNDARY FLOW =              3.95


                                    OUT                                        OUT
                                    ---                                        ---
   EVAPOTRANSPIRATION =        7.4644D+07     EVAPOTRANSPIRATION =          15478.62
           STREAMFLOW =        7.2262D+07             STREAMFLOW =           7367.69
     GW BOUNDARY FLOW =          51966.14       GW BOUNDARY FLOW =             24.06

   INFLOWS - OUTFLOWS =       -1.3443D+07     INFLOWS - OUTFLOWS =         -22866.42
             --------                                   --------

 TOTAL STORAGE CHANGE =       -1.3866D+07         STORAGE CHANGE =         -22860.51
       --------------                             --------------
         LAND SURFACE =          18179.46           LAND SURFACE =           -628.45
            SOIL ZONE =         257311.82              SOIL ZONE =          -8074.27
     UNSATURATED ZONE =        -411076.01       UNSATURATED ZONE =          -7468.16
       SATURATED ZONE =       -1.3731D+07         SATURATED ZONE =          -6690.17

 OVERALL BUDGET ERROR =         422838.50           BUDGET ERROR =             -5.91


  PERCENT DISCREPANCY =              0.29    PERCENT DISCREPANCY =             -0.03



1
 SUMMARY VOLUMETRIC BUDGET FOR GSFLOW 
 DATE: 10 15 1995              CUMULATIVE TIME STEP:      15
 MODFLOW STRESS PERIOD     62     CURRENT TIME STEP:    1841     ITERATIONS:       5

 -----------------------------------------------------------------------------------

   CUMULATIVE VOLUMES               L**3   RATES FOR THIS TIME STEP           L**3/T
   ------------------                      ------------------------

                                     IN                                         IN
                                     --                                         --
        PRECIPITATION =        1.3351D+08          PRECIPITATION =                  
           STREAMFLOW =                               STREAMFLOW =                  
     GW BOUNDARY FLOW =           5784.81       GW BOUNDARY FLOW =              4.02


                                    OUT                                        OUT
                                    ---                                        ---
   EVAPOTRANSPIRATION =        7.4760D+07     EVAPOTRANSPIRATION =          18067.67
           STREAMFLOW =        7.2312D+07             STREAMFLOW =           6954.68
     GW BOUNDARY FLOW =          52134.41       GW BOUNDARY FLOW =             24.02

   INFLOWS - OUTFLOWS =       -1.3610D+07     INFLOWS - OUTFLOWS =         -25042.35
             --------                                   --------

 TOTAL STORAGE CHANGE =       -1.4032D+07         STORAGE CHANGE =         -25034.01
       --------------                             --------------
         LAND SURFACE =          14037.99           LAND SURFACE =           -696.58
            SOIL ZONE =         197254.80              SOIL ZONE =          -9157.72
     UNSATURATED ZONE =        -460941.87       UNSATURATED ZONE =          -6977.58
       SATURATED ZONE =       -1.3783D+07         SATURATED ZONE =          -8202.66

 OVERALL BUDGET ERROR =         422775.56           BUDGET ERROR =             -8.35


  PERCENT DISCREPANCY =              0.29    PERCENT DISCREPANCY =             -0.03



1
 SUMMARY VOLUMETRIC BUDGET FOR GSFLOW 
 DATE: 10 22 1995              CUMULATIVE TIME STEP:      22
 MODFLOW STRESS PERIOD     62     CURRENT TIME STEP:    1848     ITERATIONS:       7

 -----------------------------------------------------------------------------------

   CUMULATIVE VOLUMES               L**3   RATES FOR THIS TIME STEP           L**3/T
   ------------------                      ------------------------

                                     IN                                         IN
                                     --                                         --
        PRECIPITATION =        1.3351D+08          PRECIPITATION =                  
           STREAMFLOW =                               STREAMFLOW =                  
     GW BOUNDARY FLOW =           5813.18       GW BOUNDARY FLOW =              4.08


                                    OUT                                        OUT
                                    ---                                        ---
   EVAPOTRANSPIRATION =        7.4863D+07     EVAPOTRANSPIRATION =           4695.52
           STREAMFLOW =        7.2362D+07             STREAMFLOW =           8137.99
     GW BOUNDARY FLOW =          52302.70       GW BOUNDARY FLOW =             24.13

   INFLOWS - OUTFLOWS =       -1.3763D+07     INFLOWS - OUTFLOWS =         -12853.56
             --------                                   --------

 TOTAL STORAGE CHANGE =       -1.4186D+07         STORAGE CHANGE =         -12854.13
       --------------                             --------------
         LAND SURFACE =          10452.80           LAND SURFACE =             -6.45
            SOIL ZONE =         146716.80              SOIL ZONE =          -2021.12
     UNSATURATED ZONE =        -507590.52       UNSATURATED ZONE =          -6239.37
       SATURATED ZONE =       -1.3836D+07         SATURATED ZONE =          -4587.73

 OVERALL BUDGET ERROR =         422723.87           BUDGET ERROR =              0.57


  PERCENT DISCREPANCY =              0.29    PERCENT DISCREPANCY =              0.00



1
 SUMMARY VOLUMETRIC BUDGET FOR GSFLOW 
 DATE: 10 29 1995              CUMULATIVE TIME STEP:      29
 MODFLOW STRESS PERIOD     62     CURRENT TIME STEP:    1855     ITERATIONS:       6

 -----------------------------------------------------------------------------------

   CUMULATIVE VOLUMES               L**3   RATES FOR THIS TIME STEP           L**3/T
   ------------------                      ------------------------

                                     IN                                         IN
                                     --                                         --
        PRECIPITATION =        1.3351D+08          PRECIPITATION =                  
           STREAMFLOW =                               STREAMFLOW =                  
     GW BOUNDARY FLOW =           5841.98       GW BOUNDARY FLOW =              4.14


                                    OUT                                        OUT
                                    ---                                        ---
   EVAPOTRANSPIRATION =        7.4929D+07     EVAPOTRANSPIRATION =          11323.61
           STREAMFLOW =        7.2416D+07             STREAMFLOW =           7470.92
     GW BOUNDARY FLOW =          52471.42       GW BOUNDARY FLOW =             24.08

   INFLOWS - OUTFLOWS =       -1.3883D+07     INFLOWS - OUTFLOWS =         -18814.47
             --------                                   --------

 TOTAL STORAGE CHANGE =       -1.4306D+07         STORAGE CHANGE =         -18809.61
       --------------                             --------------
         LAND SURFACE =           9254.99           LAND SURFACE =           -359.13
            SOIL ZONE =         117166.83              SOIL ZONE =          -4964.14
     UNSATURATED ZONE =        -551855.93       UNSATURATED ZONE =          -6280.57
       SATURATED ZONE =       -1.3881D+07         SATURATED ZONE =          -7206.30

 OVERALL BUDGET ERROR =         422701.52           BUDGET ERROR =             -4.86


  PERCENT DISCREPANCY =              0.29    PERCENT DISCREPANCY =             -0.03



 Number of time steps:   1857;  Number of non-convergence:   0
 MF iterations:         11570;  SZ iterations:           11521
 Average MF iterations:  6.23;  Average SZ iterations:    6.20
 Maximum MF iterations:    70;  Maximum SZ iterations:      50

mxsziter reached: 3

