1
 SUMMARY VOLUMETRIC BUDGET FOR GSFLOW 
 DATE: 10 07 1990              CUMULATIVE TIME STEP:       7
 MODFLOW STRESS PERIOD      2     CURRENT TIME STEP:       7     ITERATIONS:       7

 -----------------------------------------------------------------------------------

   CUMULATIVE VOLUMES               L**3   RATES FOR THIS TIME STEP           L**3/T
   ------------------                      ------------------------

                                     IN                                         IN
                                     --                                         --
        PRECIPITATION =                            PRECIPITATION =                  
           STREAMFLOW =                               STREAMFLOW =                  
     GW BOUNDARY FLOW =                         GW BOUNDARY FLOW =                  


                                    OUT                                        OUT
                                    ---                                        ---
   EVAPOTRANSPIRATION =         385031.63     EVAPOTRANSPIRATION =          11801.34
           STREAMFLOW =          45661.61             STREAMFLOW =           8128.74
     GW BOUNDARY FLOW =            252.78       GW BOUNDARY FLOW =             36.30

   INFLOWS - OUTFLOWS =        -430946.01     INFLOWS - OUTFLOWS =         -19966.38
             --------                                   --------

 TOTAL STORAGE CHANGE =        -429477.05         STORAGE CHANGE =         -19939.63
       --------------                             --------------
         LAND SURFACE =                             LAND SURFACE =                  
            SOIL ZONE =         -33505.98              SOIL ZONE =           -945.09
     UNSATURATED ZONE =        -502794.45       UNSATURATED ZONE =         -33592.86
       SATURATED ZONE =         106823.38         SATURATED ZONE =          14598.31

 OVERALL BUDGET ERROR =          -1468.96           BUDGET ERROR =            -26.75


  PERCENT DISCREPANCY =             -0.34    PERCENT DISCREPANCY =             -0.13



1
 SUMMARY VOLUMETRIC BUDGET FOR GSFLOW 
 DATE: 10 14 1990              CUMULATIVE TIME STEP:      14
 MODFLOW STRESS PERIOD      2     CURRENT TIME STEP:      14     ITERATIONS:       6

 -----------------------------------------------------------------------------------

   CUMULATIVE VOLUMES               L**3   RATES FOR THIS TIME STEP           L**3/T
   ------------------                      ------------------------

                                     IN                                         IN
                                     --                                         --
        PRECIPITATION =                            PRECIPITATION =                  
           STREAMFLOW =                               STREAMFLOW =                  
     GW BOUNDARY FLOW =                         GW BOUNDARY FLOW =                  


                                    OUT                                        OUT
                                    ---                                        ---
   EVAPOTRANSPIRATION =         665235.67     EVAPOTRANSPIRATION =          42298.13
           STREAMFLOW =         100376.39             STREAMFLOW =           7413.80
     GW BOUNDARY FLOW =            506.61       GW BOUNDARY FLOW =             36.24

   INFLOWS - OUTFLOWS =        -766118.68     INFLOWS - OUTFLOWS =         -49748.17
             --------                                   --------

 TOTAL STORAGE CHANGE =        -764363.74         STORAGE CHANGE =         -49727.17
       --------------                             --------------
         LAND SURFACE =                             LAND SURFACE =                  
            SOIL ZONE =         -58403.74              SOIL ZONE =          -4398.35
     UNSATURATED ZONE =        -877795.92       UNSATURATED ZONE =         -52080.87
       SATURATED ZONE =         171835.92         SATURATED ZONE =           6752.05

 OVERALL BUDGET ERROR =          -1754.94           BUDGET ERROR =            -21.00


  PERCENT DISCREPANCY =             -0.23    PERCENT DISCREPANCY =             -0.04



1
 SUMMARY VOLUMETRIC BUDGET FOR GSFLOW 
 DATE: 10 21 1990              CUMULATIVE TIME STEP:      21
 MODFLOW STRESS PERIOD      2     CURRENT TIME STEP:      21     ITERATIONS:       6

 -----------------------------------------------------------------------------------

   CUMULATIVE VOLUMES               L**3   RATES FOR THIS TIME STEP           L**3/T
   ------------------                      ------------------------

                                     IN                                         IN
                                     --                                         --
        PRECIPITATION =         188432.87          PRECIPITATION =                  
           STREAMFLOW =                               STREAMFLOW =                  
     GW BOUNDARY FLOW =                         GW BOUNDARY FLOW =                  


                                    OUT                                        OUT
                                    ---                                        ---
   EVAPOTRANSPIRATION =         815225.41     EVAPOTRANSPIRATION =          41469.37
           STREAMFLOW =         163152.05             STREAMFLOW =          10149.72
     GW BOUNDARY FLOW =            760.80       GW BOUNDARY FLOW =             36.37

   INFLOWS - OUTFLOWS =        -790705.39     INFLOWS - OUTFLOWS =         -51655.46
             --------                                   --------

 TOTAL STORAGE CHANGE =        -789215.94         STORAGE CHANGE =         -51660.08
       --------------                             --------------
         LAND SURFACE =          18885.57           LAND SURFACE =         -43558.49
            SOIL ZONE =          48405.03              SOIL ZONE =           2346.40
     UNSATURATED ZONE =       -1091630.23       UNSATURATED ZONE =         -21396.49
       SATURATED ZONE =         235123.68         SATURATED ZONE =          10948.50

 OVERALL BUDGET ERROR =          -1489.45           BUDGET ERROR =              4.61


  PERCENT DISCREPANCY =             -0.15    PERCENT DISCREPANCY =              0.01



1
 SUMMARY VOLUMETRIC BUDGET FOR GSFLOW 
 DATE: 10 28 1990              CUMULATIVE TIME STEP:      28
 MODFLOW STRESS PERIOD      2     CURRENT TIME STEP:      28     ITERATIONS:       6

 -----------------------------------------------------------------------------------

   CUMULATIVE VOLUMES               L**3   RATES FOR THIS TIME STEP           L**3/T
   ------------------                      ------------------------

                                     IN                                         IN
                                     --                                         --
        PRECIPITATION =         188432.87          PRECIPITATION =                  
           STREAMFLOW =                               STREAMFLOW =                  
     GW BOUNDARY FLOW =                         GW BOUNDARY FLOW =                  


                                    OUT                                        OUT
                                    ---                                        ---
   EVAPOTRANSPIRATION =         942733.23     EVAPOTRANSPIRATION =          11822.07
           STREAMFLOW =         224536.98             STREAMFLOW =           8923.09
     GW BOUNDARY FLOW =           1013.98       GW BOUNDARY FLOW =             36.12

   INFLOWS - OUTFLOWS =        -979851.32     INFLOWS - OUTFLOWS =         -20781.28
             --------                                   --------

 TOTAL STORAGE CHANGE =        -978346.89         STORAGE CHANGE =         -20783.19
       --------------                             --------------
         LAND SURFACE =                             LAND SURFACE =                  
            SOIL ZONE =          20442.85              SOIL ZONE =          -3457.92
     UNSATURATED ZONE =       -1275066.41       UNSATURATED ZONE =         -23213.84
       SATURATED ZONE =         276276.67         SATURATED ZONE =           5888.56

 OVERALL BUDGET ERROR =          -1504.43           BUDGET ERROR =              1.92


  PERCENT DISCREPANCY =             -0.13    PERCENT DISCREPANCY =              0.01



1
 SUMMARY VOLUMETRIC BUDGET FOR GSFLOW 
 DATE: 11 04 1990              CUMULATIVE TIME STEP:       4
 MODFLOW STRESS PERIOD      3     CURRENT TIME STEP:      35     ITERATIONS:       6

 -----------------------------------------------------------------------------------

   CUMULATIVE VOLUMES               L**3   RATES FOR THIS TIME STEP           L**3/T
   ------------------                      ------------------------

                                     IN                                         IN
                                     --                                         --
        PRECIPITATION =         703113.06          PRECIPITATION =                  
           STREAMFLOW =                               STREAMFLOW =                  
     GW BOUNDARY FLOW =                         GW BOUNDARY FLOW =                  


                                    OUT                                        OUT
                                    ---                                        ---
   EVAPOTRANSPIRATION =        1003049.10     EVAPOTRANSPIRATION =          26049.14
           STREAMFLOW =         295107.31             STREAMFLOW =          10628.75
     GW BOUNDARY FLOW =           1267.02       GW BOUNDARY FLOW =             36.13

   INFLOWS - OUTFLOWS =        -596310.37     INFLOWS - OUTFLOWS =         -36714.02
             --------                                   --------

 TOTAL STORAGE CHANGE =        -596120.52         STORAGE CHANGE =         -37022.40
       --------------                             --------------
         LAND SURFACE =         132159.65           LAND SURFACE =        -160480.33
            SOIL ZONE =         356195.82              SOIL ZONE =         134134.76
     UNSATURATED ZONE =       -1420505.47       UNSATURATED ZONE =         -20037.38
       SATURATED ZONE =         336029.46         SATURATED ZONE =           9360.55

 OVERALL BUDGET ERROR =           -189.85           BUDGET ERROR =            308.38


  PERCENT DISCREPANCY =             -0.01    PERCENT DISCREPANCY =              0.84



1
 SUMMARY VOLUMETRIC BUDGET FOR GSFLOW 
 DATE: 11 11 1990              CUMULATIVE TIME STEP:      11
 MODFLOW STRESS PERIOD      3     CURRENT TIME STEP:      42     ITERATIONS:       6

 -----------------------------------------------------------------------------------

   CUMULATIVE VOLUMES               L**3   RATES FOR THIS TIME STEP           L**3/T
   ------------------                      ------------------------

                                     IN                                         IN
                                     --                                         --
        PRECIPITATION =         703113.06          PRECIPITATION =                  
           STREAMFLOW =                               STREAMFLOW =                  
     GW BOUNDARY FLOW =                         GW BOUNDARY FLOW =                  


                                    OUT                                        OUT
                                    ---                                        ---
   EVAPOTRANSPIRATION =        1079104.31     EVAPOTRANSPIRATION =          12189.83
           STREAMFLOW =         366265.58             STREAMFLOW =           9666.55
     GW BOUNDARY FLOW =           1519.13       GW BOUNDARY FLOW =             35.93

   INFLOWS - OUTFLOWS =        -743775.95     INFLOWS - OUTFLOWS =         -21892.30
             --------                                   --------

 TOTAL STORAGE CHANGE =        -743611.69         STORAGE CHANGE =         -21894.97
       --------------                             --------------
         LAND SURFACE =            595.09           LAND SURFACE =          -1416.54
            SOIL ZONE =         429560.46              SOIL ZONE =          -5592.47
     UNSATURATED ZONE =       -1559640.88       UNSATURATED ZONE =         -19831.66
       SATURATED ZONE =         385873.60         SATURATED ZONE =           4945.69

 OVERALL BUDGET ERROR =           -164.26           BUDGET ERROR =              2.66


  PERCENT DISCREPANCY =             -0.01    PERCENT DISCREPANCY =              0.01



1
 SUMMARY VOLUMETRIC BUDGET FOR GSFLOW 
 DATE: 11 18 1990              CUMULATIVE TIME STEP:      18
 MODFLOW STRESS PERIOD      3     CURRENT TIME STEP:      49     ITERATIONS:       6

 -----------------------------------------------------------------------------------

   CUMULATIVE VOLUMES               L**3   RATES FOR THIS TIME STEP           L**3/T
   ------------------                      ------------------------

                                     IN                                         IN
                                     --                                         --
        PRECIPITATION =         747883.35          PRECIPITATION =                  
           STREAMFLOW =                               STREAMFLOW =                  
     GW BOUNDARY FLOW =                         GW BOUNDARY FLOW =                  


                                    OUT                                        OUT
                                    ---                                        ---
   EVAPOTRANSPIRATION =        1150702.81     EVAPOTRANSPIRATION =           4984.11
           STREAMFLOW =         438022.69             STREAMFLOW =          10677.71
     GW BOUNDARY FLOW =           1770.44       GW BOUNDARY FLOW =             35.88

   INFLOWS - OUTFLOWS =        -842612.59     INFLOWS - OUTFLOWS =         -15697.70
             --------                                   --------

 TOTAL STORAGE CHANGE =        -842467.59         STORAGE CHANGE =         -15700.92
       --------------                             --------------
         LAND SURFACE =           7868.08           LAND SURFACE =          -3691.47
            SOIL ZONE =         412330.84              SOIL ZONE =           -660.37
     UNSATURATED ZONE =       -1692752.24       UNSATURATED ZONE =         -18604.38
       SATURATED ZONE =         430085.68         SATURATED ZONE =           7255.29

 OVERALL BUDGET ERROR =           -145.00           BUDGET ERROR =              3.22


  PERCENT DISCREPANCY =             -0.01    PERCENT DISCREPANCY =              0.02



1
 SUMMARY VOLUMETRIC BUDGET FOR GSFLOW 
 DATE: 11 25 1990              CUMULATIVE TIME STEP:      25
 MODFLOW STRESS PERIOD      3     CURRENT TIME STEP:      56     ITERATIONS:       6

 -----------------------------------------------------------------------------------

   CUMULATIVE VOLUMES               L**3   RATES FOR THIS TIME STEP           L**3/T
   ------------------                      ------------------------

                                     IN                                         IN
                                     --                                         --
        PRECIPITATION =        1009043.38          PRECIPITATION =         186542.88
           STREAMFLOW =                               STREAMFLOW =                  
     GW BOUNDARY FLOW =                         GW BOUNDARY FLOW =                  


                                    OUT                                        OUT
                                    ---                                        ---
   EVAPOTRANSPIRATION =        1210218.33     EVAPOTRANSPIRATION =           3751.43
           STREAMFLOW =         514044.24             STREAMFLOW =          10882.96
     GW BOUNDARY FLOW =           2021.38       GW BOUNDARY FLOW =             35.79

   INFLOWS - OUTFLOWS =        -717240.57     INFLOWS - OUTFLOWS =         171872.69
             --------                                   --------

 TOTAL STORAGE CHANGE =        -717482.66         STORAGE CHANGE =         171504.73
       --------------                             --------------
         LAND SURFACE =          86180.68           LAND SURFACE =          69567.13
            SOIL ZONE =         537247.21              SOIL ZONE =         113565.68
     UNSATURATED ZONE =       -1820309.96       UNSATURATED ZONE =         -17907.68
       SATURATED ZONE =         479399.35         SATURATED ZONE =           6279.59

 OVERALL BUDGET ERROR =            242.09           BUDGET ERROR =            367.96


  PERCENT DISCREPANCY =              0.01    PERCENT DISCREPANCY =              0.20



1
 SUMMARY VOLUMETRIC BUDGET FOR GSFLOW 
 DATE: 12 02 1990              CUMULATIVE TIME STEP:       2
 MODFLOW STRESS PERIOD      4     CURRENT TIME STEP:      63     ITERATIONS:       6

 -----------------------------------------------------------------------------------

   CUMULATIVE VOLUMES               L**3   RATES FOR THIS TIME STEP           L**3/T
   ------------------                      ------------------------

                                     IN                                         IN
                                     --                                         --
        PRECIPITATION =        1449284.55          PRECIPITATION =                  
           STREAMFLOW =                               STREAMFLOW =                  
     GW BOUNDARY FLOW =                         GW BOUNDARY FLOW =                  


                                    OUT                                        OUT
                                    ---                                        ---
   EVAPOTRANSPIRATION =        1216713.45     EVAPOTRANSPIRATION =            234.47
           STREAMFLOW =         591292.86             STREAMFLOW =          11080.76
     GW BOUNDARY FLOW =           2271.86       GW BOUNDARY FLOW =             35.77

   INFLOWS - OUTFLOWS =        -360993.62     INFLOWS - OUTFLOWS =         -11351.00
             --------                                   --------

 TOTAL STORAGE CHANGE =        -361552.04         STORAGE CHANGE =         -11352.87
       --------------                             --------------
         LAND SURFACE =         486845.62           LAND SURFACE =           -339.04
            SOIL ZONE =         570320.89              SOIL ZONE =            155.07
     UNSATURATED ZONE =       -1943152.17       UNSATURATED ZONE =         -17255.37
       SATURATED ZONE =         524433.54         SATURATED ZONE =           6086.47

 OVERALL BUDGET ERROR =            558.42           BUDGET ERROR =              1.87


  PERCENT DISCREPANCY =              0.03    PERCENT DISCREPANCY =              0.02



1
 SUMMARY VOLUMETRIC BUDGET FOR GSFLOW 
 DATE: 12 09 1990              CUMULATIVE TIME STEP:       9
 MODFLOW STRESS PERIOD      4     CURRENT TIME STEP:      70     ITERATIONS:       6

 -----------------------------------------------------------------------------------

   CUMULATIVE VOLUMES               L**3   RATES FOR THIS TIME STEP           L**3/T
   ------------------                      ------------------------

                                     IN                                         IN
                                     --                                         --
        PRECIPITATION =        1449284.55          PRECIPITATION =                  
           STREAMFLOW =                               STREAMFLOW =                  
     GW BOUNDARY FLOW =                         GW BOUNDARY FLOW =                  


                                    OUT                                        OUT
                                    ---                                        ---
   EVAPOTRANSPIRATION =        1291163.18     EVAPOTRANSPIRATION =          13330.13
           STREAMFLOW =         669029.67             STREAMFLOW =          10900.47
     GW BOUNDARY FLOW =           2521.82       GW BOUNDARY FLOW =             35.64

   INFLOWS - OUTFLOWS =        -513430.12     INFLOWS - OUTFLOWS =         -24266.25
             --------                                   --------

 TOTAL STORAGE CHANGE =        -515078.03         STORAGE CHANGE =         -24271.69
       --------------                             --------------
         LAND SURFACE =          67215.41           LAND SURFACE =         -45889.70
            SOIL ZONE =         917832.93              SOIL ZONE =          34271.09
     UNSATURATED ZONE =       -2060932.01       UNSATURATED ZONE =         -16478.22
       SATURATED ZONE =         560805.53         SATURATED ZONE =           3825.14

 OVERALL BUDGET ERROR =           1647.91           BUDGET ERROR =              5.44


  PERCENT DISCREPANCY =              0.08    PERCENT DISCREPANCY =              0.02



1
 SUMMARY VOLUMETRIC BUDGET FOR GSFLOW 
 DATE: 12 16 1990              CUMULATIVE TIME STEP:      16
 MODFLOW STRESS PERIOD      4     CURRENT TIME STEP:      77     ITERATIONS:       5

 -----------------------------------------------------------------------------------

   CUMULATIVE VOLUMES               L**3   RATES FOR THIS TIME STEP           L**3/T
   ------------------                      ------------------------

                                     IN                                         IN
                                     --                                         --
        PRECIPITATION =        1804962.84          PRECIPITATION =                  
           STREAMFLOW =                               STREAMFLOW =                  
     GW BOUNDARY FLOW =                         GW BOUNDARY FLOW =                  


                                    OUT                                        OUT
                                    ---                                        ---
   EVAPOTRANSPIRATION =        1319082.22     EVAPOTRANSPIRATION =                  
           STREAMFLOW =         748753.63             STREAMFLOW =          11517.56
     GW BOUNDARY FLOW =           2771.23       GW BOUNDARY FLOW =             35.61

   INFLOWS - OUTFLOWS =        -265644.24     INFLOWS - OUTFLOWS =         -11553.16
             --------                                   --------

 TOTAL STORAGE CHANGE =        -267805.19         STORAGE CHANGE =         -11554.05
       --------------                             --------------
         LAND SURFACE =         252566.26           LAND SURFACE =                  
            SOIL ZONE =        1062407.54              SOIL ZONE =            -15.20
     UNSATURATED ZONE =       -2174264.82       UNSATURATED ZONE =         -15929.70
       SATURATED ZONE =         591485.66         SATURATED ZONE =           4390.86

 OVERALL BUDGET ERROR =           2160.95           BUDGET ERROR =              0.88


  PERCENT DISCREPANCY =              0.10    PERCENT DISCREPANCY =              0.01



1
 SUMMARY VOLUMETRIC BUDGET FOR GSFLOW 
 DATE: 12 23 1990              CUMULATIVE TIME STEP:      23
 MODFLOW STRESS PERIOD      4     CURRENT TIME STEP:      84     ITERATIONS:       6

 -----------------------------------------------------------------------------------

   CUMULATIVE VOLUMES               L**3   RATES FOR THIS TIME STEP           L**3/T
   ------------------                      ------------------------

                                     IN                                         IN
                                     --                                         --
        PRECIPITATION =        2276236.55          PRECIPITATION =                  
           STREAMFLOW =                               STREAMFLOW =                  
     GW BOUNDARY FLOW =              0.08       GW BOUNDARY FLOW =              0.04


                                    OUT                                        OUT
                                    ---                                        ---
   EVAPOTRANSPIRATION =        1320139.74     EVAPOTRANSPIRATION =                  
           STREAMFLOW =         829576.87             STREAMFLOW =          11566.45
     GW BOUNDARY FLOW =           3020.26       GW BOUNDARY FLOW =             35.57

   INFLOWS - OUTFLOWS =         123499.77     INFLOWS - OUTFLOWS =         -11601.98
             --------                                   --------

 TOTAL STORAGE CHANGE =         121338.14         STORAGE CHANGE =         -11601.77
       --------------                             --------------
         LAND SURFACE =         722784.34           LAND SURFACE =                  
            SOIL ZONE =        1062637.27              SOIL ZONE =             61.45
     UNSATURATED ZONE =       -2283464.90       UNSATURATED ZONE =         -15355.72
       SATURATED ZONE =         619381.24         SATURATED ZONE =           3692.48

 OVERALL BUDGET ERROR =           2161.63           BUDGET ERROR =             -0.20


  PERCENT DISCREPANCY =              0.10    PERCENT DISCREPANCY =             -0.00



1
 SUMMARY VOLUMETRIC BUDGET FOR GSFLOW 
 DATE: 12 30 1990              CUMULATIVE TIME STEP:      30
 MODFLOW STRESS PERIOD      4     CURRENT TIME STEP:      91     ITERATIONS:       5

 -----------------------------------------------------------------------------------

   CUMULATIVE VOLUMES               L**3   RATES FOR THIS TIME STEP           L**3/T
   ------------------                      ------------------------

                                     IN                                         IN
                                     --                                         --
        PRECIPITATION =        2276236.55          PRECIPITATION =                  
           STREAMFLOW =                               STREAMFLOW =                  
     GW BOUNDARY FLOW =              0.77       GW BOUNDARY FLOW =              0.14


                                    OUT                                        OUT
                                    ---                                        ---
   EVAPOTRANSPIRATION =        1320707.25     EVAPOTRANSPIRATION =                  
           STREAMFLOW =         910812.74             STREAMFLOW =          11637.42
     GW BOUNDARY FLOW =           3269.36       GW BOUNDARY FLOW =             35.60

   INFLOWS - OUTFLOWS =          41447.97     INFLOWS - OUTFLOWS =         -11672.87
             --------                                   --------

 TOTAL STORAGE CHANGE =          39294.77         STORAGE CHANGE =         -11670.65
       --------------                             --------------
         LAND SURFACE =         722216.94           LAND SURFACE =                  
            SOIL ZONE =        1063267.13              SOIL ZONE =            109.00
     UNSATURATED ZONE =       -2388753.72       UNSATURATED ZONE =         -14807.33
       SATURATED ZONE =         642564.18         SATURATED ZONE =           3027.67

 OVERALL BUDGET ERROR =           2153.20           BUDGET ERROR =             -2.22


  PERCENT DISCREPANCY =              0.09    PERCENT DISCREPANCY =             -0.02



1
 SUMMARY VOLUMETRIC BUDGET FOR GSFLOW 
 DATE: 01 06 1991              CUMULATIVE TIME STEP:       6
 MODFLOW STRESS PERIOD      5     CURRENT TIME STEP:      98     ITERATIONS:       5

 -----------------------------------------------------------------------------------

   CUMULATIVE VOLUMES               L**3   RATES FOR THIS TIME STEP           L**3/T
   ------------------                      ------------------------

                                     IN                                         IN
                                     --                                         --
        PRECIPITATION =        2276236.55          PRECIPITATION =                  
           STREAMFLOW =                               STREAMFLOW =                  
     GW BOUNDARY FLOW =              2.09       GW BOUNDARY FLOW =              0.22


                                    OUT                                        OUT
                                    ---                                        ---
   EVAPOTRANSPIRATION =        1347694.66     EVAPOTRANSPIRATION =           3177.07
           STREAMFLOW =         992719.45             STREAMFLOW =          11741.76
     GW BOUNDARY FLOW =           3519.23       GW BOUNDARY FLOW =             35.75

   INFLOWS - OUTFLOWS =         -67694.69     INFLOWS - OUTFLOWS =         -14954.35
             --------                                   --------

 TOTAL STORAGE CHANGE =         -70494.46         STORAGE CHANGE =         -14979.19
       --------------                             --------------
         LAND SURFACE =         592099.77           LAND SURFACE =          -8106.31
            SOIL ZONE =        1166467.03              SOIL ZONE =           4999.30
     UNSATURATED ZONE =       -2490093.89       UNSATURATED ZONE =         -14244.98
       SATURATED ZONE =         661032.36         SATURATED ZONE =           2372.78

 OVERALL BUDGET ERROR =           2799.77           BUDGET ERROR =             24.84


  PERCENT DISCREPANCY =              0.12    PERCENT DISCREPANCY =              0.17



1
 SUMMARY VOLUMETRIC BUDGET FOR GSFLOW 
 DATE: 01 13 1991              CUMULATIVE TIME STEP:      13
 MODFLOW STRESS PERIOD      5     CURRENT TIME STEP:     105     ITERATIONS:       6

 -----------------------------------------------------------------------------------

   CUMULATIVE VOLUMES               L**3   RATES FOR THIS TIME STEP           L**3/T
   ------------------                      ------------------------

                                     IN                                         IN
                                     --                                         --
        PRECIPITATION =        2596386.94          PRECIPITATION =          10327.43
           STREAMFLOW =                               STREAMFLOW =                  
     GW BOUNDARY FLOW =              4.02       GW BOUNDARY FLOW =              0.31


                                    OUT                                        OUT
                                    ---                                        ---
   EVAPOTRANSPIRATION =        1413589.62     EVAPOTRANSPIRATION =          17874.70
           STREAMFLOW =        1075027.89             STREAMFLOW =          11695.12
     GW BOUNDARY FLOW =           3769.45       GW BOUNDARY FLOW =             35.73

   INFLOWS - OUTFLOWS =         104004.00     INFLOWS - OUTFLOWS =         -19277.81
             --------                                   --------

 TOTAL STORAGE CHANGE =          99969.76         STORAGE CHANGE =         -19537.47
       --------------                             --------------
         LAND SURFACE =         529885.07           LAND SURFACE =        -135264.71
            SOIL ZONE =        1483701.05              SOIL ZONE =         128446.97
     UNSATURATED ZONE =       -2587348.73       UNSATURATED ZONE =         -13681.77
       SATURATED ZONE =         673732.04         SATURATED ZONE =            962.03

 OVERALL BUDGET ERROR =           4034.25           BUDGET ERROR =            259.66


  PERCENT DISCREPANCY =              0.16    PERCENT DISCREPANCY =              0.87



1
 SUMMARY VOLUMETRIC BUDGET FOR GSFLOW 
 DATE: 01 20 1991              CUMULATIVE TIME STEP:      20
 MODFLOW STRESS PERIOD      5     CURRENT TIME STEP:     112     ITERATIONS:       5

 -----------------------------------------------------------------------------------

   CUMULATIVE VOLUMES               L**3   RATES FOR THIS TIME STEP           L**3/T
   ------------------                      ------------------------

                                     IN                                         IN
                                     --                                         --
        PRECIPITATION =        2596386.94          PRECIPITATION =                  
           STREAMFLOW =                               STREAMFLOW =                  
     GW BOUNDARY FLOW =              6.55       GW BOUNDARY FLOW =              0.40


                                    OUT                                        OUT
                                    ---                                        ---
   EVAPOTRANSPIRATION =        1488045.17     EVAPOTRANSPIRATION =           2344.30
           STREAMFLOW =        1158084.86             STREAMFLOW =          11896.46
     GW BOUNDARY FLOW =           4019.70       GW BOUNDARY FLOW =             35.75

   INFLOWS - OUTFLOWS =         -53756.25     INFLOWS - OUTFLOWS =         -14276.11
             --------                                   --------

 TOTAL STORAGE CHANGE =         -57877.57         STORAGE CHANGE =         -14268.29
       --------------                             --------------
         LAND SURFACE =         356897.60           LAND SURFACE =           -433.81
            SOIL ZONE =        1583486.96              SOIL ZONE =          -1819.74
     UNSATURATED ZONE =       -2680699.82       UNSATURATED ZONE =         -13119.55
       SATURATED ZONE =         682437.30         SATURATED ZONE =           1104.80

 OVERALL BUDGET ERROR =           4121.32           BUDGET ERROR =             -7.83


  PERCENT DISCREPANCY =              0.16    PERCENT DISCREPANCY =             -0.05



1
 SUMMARY VOLUMETRIC BUDGET FOR GSFLOW 
 DATE: 01 27 1991              CUMULATIVE TIME STEP:      27
 MODFLOW STRESS PERIOD      5     CURRENT TIME STEP:     119     ITERATIONS:       5

 -----------------------------------------------------------------------------------

   CUMULATIVE VOLUMES               L**3   RATES FOR THIS TIME STEP           L**3/T
   ------------------                      ------------------------

                                     IN                                         IN
                                     --                                         --
        PRECIPITATION =        2596386.94          PRECIPITATION =                  
           STREAMFLOW =                               STREAMFLOW =                  
     GW BOUNDARY FLOW =              9.65       GW BOUNDARY FLOW =              0.48


                                    OUT                                        OUT
                                    ---                                        ---
   EVAPOTRANSPIRATION =        1512671.06     EVAPOTRANSPIRATION =           1657.75
           STREAMFLOW =        1241329.06             STREAMFLOW =          11917.59
     GW BOUNDARY FLOW =           4269.91       GW BOUNDARY FLOW =             35.74

   INFLOWS - OUTFLOWS =        -161873.43     INFLOWS - OUTFLOWS =         -13610.60
             --------                                   --------

 TOTAL STORAGE CHANGE =        -165947.96         STORAGE CHANGE =         -13601.45
       --------------                             --------------
         LAND SURFACE =         323033.09           LAND SURFACE =           -547.84
            SOIL ZONE =        1593976.64              SOIL ZONE =           -999.55
     UNSATURATED ZONE =       -2770602.62       UNSATURATED ZONE =         -12622.86
       SATURATED ZONE =         687644.49         SATURATED ZONE =            568.79

 OVERALL BUDGET ERROR =           4074.53           BUDGET ERROR =             -9.15


  PERCENT DISCREPANCY =              0.15    PERCENT DISCREPANCY =             -0.07



1
 SUMMARY VOLUMETRIC BUDGET FOR GSFLOW 
 DATE: 02 03 1991              CUMULATIVE TIME STEP:       3
 MODFLOW STRESS PERIOD      6     CURRENT TIME STEP:     126     ITERATIONS:       6

 -----------------------------------------------------------------------------------

   CUMULATIVE VOLUMES               L**3   RATES FOR THIS TIME STEP           L**3/T
   ------------------                      ------------------------

                                     IN                                         IN
                                     --                                         --
        PRECIPITATION =        3228422.31          PRECIPITATION =          30459.53
           STREAMFLOW =                               STREAMFLOW =                  
     GW BOUNDARY FLOW =             13.31       GW BOUNDARY FLOW =              0.55


                                    OUT                                        OUT
                                    ---                                        ---
   EVAPOTRANSPIRATION =        1615797.58     EVAPOTRANSPIRATION =          20932.55
           STREAMFLOW =        1326168.03             STREAMFLOW =          12224.18
     GW BOUNDARY FLOW =           4520.08       GW BOUNDARY FLOW =             35.74

   INFLOWS - OUTFLOWS =         281949.92     INFLOWS - OUTFLOWS =          -2732.37
             --------                                   --------

 TOTAL STORAGE CHANGE =         276083.26         STORAGE CHANGE =          -2819.85
       --------------                             --------------
         LAND SURFACE =         157683.43           LAND SURFACE =         -26376.35
            SOIL ZONE =        2287700.32              SOIL ZONE =          35868.71
     UNSATURATED ZONE =       -2857247.99       UNSATURATED ZONE =         -12212.88
       SATURATED ZONE =         687947.00         SATURATED ZONE =            -99.35

 OVERALL BUDGET ERROR =           5866.66           BUDGET ERROR =             87.48


  PERCENT DISCREPANCY =              0.18    PERCENT DISCREPANCY =              0.26



1
 SUMMARY VOLUMETRIC BUDGET FOR GSFLOW 
 DATE: 02 10 1991              CUMULATIVE TIME STEP:      10
 MODFLOW STRESS PERIOD      6     CURRENT TIME STEP:     133     ITERATIONS:       5

 -----------------------------------------------------------------------------------

   CUMULATIVE VOLUMES               L**3   RATES FOR THIS TIME STEP           L**3/T
   ------------------                      ------------------------

                                     IN                                         IN
                                     --                                         --
        PRECIPITATION =        3510173.01          PRECIPITATION =                  
           STREAMFLOW =                               STREAMFLOW =                  
     GW BOUNDARY FLOW =             17.48       GW BOUNDARY FLOW =              0.63


                                    OUT                                        OUT
                                    ---                                        ---
   EVAPOTRANSPIRATION =        1782009.18     EVAPOTRANSPIRATION =          25215.44
           STREAMFLOW =        1412308.75             STREAMFLOW =          12158.10
     GW BOUNDARY FLOW =           4770.16       GW BOUNDARY FLOW =             35.72

   INFLOWS - OUTFLOWS =         311102.41     INFLOWS - OUTFLOWS =         -37408.63
             --------                                   --------

 TOTAL STORAGE CHANGE =         304569.74         STORAGE CHANGE =         -37396.70
       --------------                             --------------
         LAND SURFACE =          75877.11           LAND SURFACE =          -8469.89
            SOIL ZONE =        2483154.72              SOIL ZONE =         -16640.30
     UNSATURATED ZONE =       -2940358.97       UNSATURATED ZONE =         -11702.88
       SATURATED ZONE =         685896.28         SATURATED ZONE =           -583.64

 OVERALL BUDGET ERROR =           6532.67           BUDGET ERROR =            -11.93


  PERCENT DISCREPANCY =              0.19    PERCENT DISCREPANCY =             -0.03



1
 SUMMARY VOLUMETRIC BUDGET FOR GSFLOW 
 DATE: 02 17 1991              CUMULATIVE TIME STEP:      17
 MODFLOW STRESS PERIOD      6     CURRENT TIME STEP:     140     ITERATIONS:       5

 -----------------------------------------------------------------------------------

   CUMULATIVE VOLUMES               L**3   RATES FOR THIS TIME STEP           L**3/T
   ------------------                      ------------------------

                                     IN                                         IN
                                     --                                         --
        PRECIPITATION =        3510173.01          PRECIPITATION =                  
           STREAMFLOW =                               STREAMFLOW =                  
     GW BOUNDARY FLOW =             22.16       GW BOUNDARY FLOW =              0.70


                                    OUT                                        OUT
                                    ---                                        ---
   EVAPOTRANSPIRATION =        2021812.20     EVAPOTRANSPIRATION =          23529.60
           STREAMFLOW =        1497014.31             STREAMFLOW =          12102.25
     GW BOUNDARY FLOW =           5020.09       GW BOUNDARY FLOW =             35.68

   INFLOWS - OUTFLOWS =         -13651.43     INFLOWS - OUTFLOWS =         -35666.83
             --------                                   --------

 TOTAL STORAGE CHANGE =         -20092.80         STORAGE CHANGE =         -35653.15
       --------------                             --------------
         LAND SURFACE =          17890.99           LAND SURFACE =          -1143.67
            SOIL ZONE =        2302485.37              SOIL ZONE =         -22349.11
     UNSATURATED ZONE =       -3020006.94       UNSATURATED ZONE =         -11072.27
       SATURATED ZONE =         679537.11         SATURATED ZONE =          -1088.11

 OVERALL BUDGET ERROR =           6441.36           BUDGET ERROR =            -13.68


  PERCENT DISCREPANCY =              0.18    PERCENT DISCREPANCY =             -0.04



1
 SUMMARY VOLUMETRIC BUDGET FOR GSFLOW 
 DATE: 02 24 1991              CUMULATIVE TIME STEP:      24
 MODFLOW STRESS PERIOD      6     CURRENT TIME STEP:     147     ITERATIONS:       5

 -----------------------------------------------------------------------------------

   CUMULATIVE VOLUMES               L**3   RATES FOR THIS TIME STEP           L**3/T
   ------------------                      ------------------------

                                     IN                                         IN
                                     --                                         --
        PRECIPITATION =        3510173.01          PRECIPITATION =                  
           STREAMFLOW =                               STREAMFLOW =                  
     GW BOUNDARY FLOW =             27.30       GW BOUNDARY FLOW =              0.76


                                    OUT                                        OUT
                                    ---                                        ---
   EVAPOTRANSPIRATION =        2234212.47     EVAPOTRANSPIRATION =          21575.11
           STREAMFLOW =        1581322.62             STREAMFLOW =          12034.61
     GW BOUNDARY FLOW =           5269.14       GW BOUNDARY FLOW =             35.51

   INFLOWS - OUTFLOWS =        -310603.92     INFLOWS - OUTFLOWS =         -33644.46
             --------                                   --------

 TOTAL STORAGE CHANGE =        -316942.62         STORAGE CHANGE =         -33629.14
       --------------                             --------------
         LAND SURFACE =           7435.72           LAND SURFACE =           -217.69
            SOIL ZONE =        2101723.34              SOIL ZONE =         -21158.11
     UNSATURATED ZONE =       -3095865.03       UNSATURATED ZONE =         -10666.36
       SATURATED ZONE =         669762.59         SATURATED ZONE =          -1586.99

 OVERALL BUDGET ERROR =           6338.69           BUDGET ERROR =            -15.33


  PERCENT DISCREPANCY =              0.17    PERCENT DISCREPANCY =             -0.05



1
 SUMMARY VOLUMETRIC BUDGET FOR GSFLOW 
 DATE: 03 03 1991              CUMULATIVE TIME STEP:       3
 MODFLOW STRESS PERIOD      7     CURRENT TIME STEP:     154     ITERATIONS:       5

 -----------------------------------------------------------------------------------

   CUMULATIVE VOLUMES               L**3   RATES FOR THIS TIME STEP           L**3/T
   ------------------                      ------------------------

                                     IN                                         IN
                                     --                                         --
        PRECIPITATION =        6220189.63          PRECIPITATION =        1243187.24
           STREAMFLOW =                               STREAMFLOW =                  
     GW BOUNDARY FLOW =             32.90       GW BOUNDARY FLOW =              0.83


                                    OUT                                        OUT
                                    ---                                        ---
   EVAPOTRANSPIRATION =        2386221.31     EVAPOTRANSPIRATION =           8435.73
           STREAMFLOW =        1665334.28             STREAMFLOW =          12350.24
     GW BOUNDARY FLOW =           5516.93       GW BOUNDARY FLOW =             35.34

   INFLOWS - OUTFLOWS =        2163150.02     INFLOWS - OUTFLOWS =        1222366.76
             --------                                   --------

 TOTAL STORAGE CHANGE =        2154778.76         STORAGE CHANGE =        1220238.29
       --------------                             --------------
         LAND SURFACE =        2352761.88           LAND SURFACE =         894135.84
            SOIL ZONE =        2315483.46              SOIL ZONE =         338740.43
     UNSATURATED ZONE =       -3168759.95       UNSATURATED ZONE =         -10256.84
       SATURATED ZONE =         655292.50         SATURATED ZONE =          -2381.15

 OVERALL BUDGET ERROR =           8371.27           BUDGET ERROR =           2128.47


  PERCENT DISCREPANCY =              0.13    PERCENT DISCREPANCY =              0.17



1
 SUMMARY VOLUMETRIC BUDGET FOR GSFLOW 
 DATE: 03 10 1991              CUMULATIVE TIME STEP:      10
 MODFLOW STRESS PERIOD      7     CURRENT TIME STEP:     161     ITERATIONS:       5

 -----------------------------------------------------------------------------------

   CUMULATIVE VOLUMES               L**3   RATES FOR THIS TIME STEP           L**3/T
   ------------------                      ------------------------

                                     IN                                         IN
                                     --                                         --
        PRECIPITATION =        8746030.42          PRECIPITATION =          32888.55
           STREAMFLOW =                               STREAMFLOW =                  
     GW BOUNDARY FLOW =             38.93       GW BOUNDARY FLOW =              0.89


                                    OUT                                        OUT
                                    ---                                        ---
   EVAPOTRANSPIRATION =        2459410.52     EVAPOTRANSPIRATION =           8863.53
           STREAMFLOW =        1858793.18             STREAMFLOW =          22454.94
     GW BOUNDARY FLOW =           5765.99       GW BOUNDARY FLOW =             35.45

   INFLOWS - OUTFLOWS =        4422099.67     INFLOWS - OUTFLOWS =           1535.52
             --------                                   --------

 TOTAL STORAGE CHANGE =        4403859.83         STORAGE CHANGE =           1319.55
       --------------                             --------------
         LAND SURFACE =        2523463.28           LAND SURFACE =         -14137.08
            SOIL ZONE =        4418817.82              SOIL ZONE =          18553.16
     UNSATURATED ZONE =       -3188683.57       UNSATURATED ZONE =          -1793.45
       SATURATED ZONE =         650261.25         SATURATED ZONE =          -1303.11

 OVERALL BUDGET ERROR =          18239.83           BUDGET ERROR =            215.98


  PERCENT DISCREPANCY =              0.21    PERCENT DISCREPANCY =              0.66



1
 SUMMARY VOLUMETRIC BUDGET FOR GSFLOW 
 DATE: 03 17 1991              CUMULATIVE TIME STEP:      17
 MODFLOW STRESS PERIOD      7     CURRENT TIME STEP:     168     ITERATIONS:       5

 -----------------------------------------------------------------------------------

   CUMULATIVE VOLUMES               L**3   RATES FOR THIS TIME STEP           L**3/T
   ------------------                      ------------------------

                                     IN                                         IN
                                     --                                         --
        PRECIPITATION =        9897129.71          PRECIPITATION =         157865.04
           STREAMFLOW =                               STREAMFLOW =                  
     GW BOUNDARY FLOW =             45.37       GW BOUNDARY FLOW =              0.95


                                    OUT                                        OUT
                                    ---                                        ---
   EVAPOTRANSPIRATION =        2487249.40     EVAPOTRANSPIRATION =           8079.79
           STREAMFLOW =        2003241.61             STREAMFLOW =          19963.13
     GW BOUNDARY FLOW =           6013.31       GW BOUNDARY FLOW =             35.25

   INFLOWS - OUTFLOWS =        5400670.77     INFLOWS - OUTFLOWS =         129787.82
             --------                                   --------

 TOTAL STORAGE CHANGE =        5382541.87         STORAGE CHANGE =         129806.71
       --------------                             --------------
         LAND SURFACE =        3672302.31           LAND SURFACE =         157496.61
            SOIL ZONE =        4277069.99              SOIL ZONE =         -23058.40
     UNSATURATED ZONE =       -3204830.99       UNSATURATED ZONE =          -2591.55
       SATURATED ZONE =         637999.29         SATURATED ZONE =          -2039.97

 OVERALL BUDGET ERROR =          18128.90           BUDGET ERROR =            -18.89


  PERCENT DISCREPANCY =              0.18    PERCENT DISCREPANCY =             -0.01



1
 SUMMARY VOLUMETRIC BUDGET FOR GSFLOW 
 DATE: 03 24 1991              CUMULATIVE TIME STEP:      24
 MODFLOW STRESS PERIOD      7     CURRENT TIME STEP:     175     ITERATIONS:       5

 -----------------------------------------------------------------------------------

   CUMULATIVE VOLUMES               L**3   RATES FOR THIS TIME STEP           L**3/T
   ------------------                      ------------------------

                                     IN                                         IN
                                     --                                         --
        PRECIPITATION =        1.1673D+07          PRECIPITATION =        1230031.83
           STREAMFLOW =                               STREAMFLOW =                  
     GW BOUNDARY FLOW =             52.22       GW BOUNDARY FLOW =              1.00


                                    OUT                                        OUT
                                    ---                                        ---
   EVAPOTRANSPIRATION =        2526063.63     EVAPOTRANSPIRATION =           4663.51
           STREAMFLOW =        2138810.25             STREAMFLOW =          19059.17
     GW BOUNDARY FLOW =           6259.42       GW BOUNDARY FLOW =             35.09

   INFLOWS - OUTFLOWS =        7002030.43     INFLOWS - OUTFLOWS =        1206275.07
             --------                                   --------

 TOTAL STORAGE CHANGE =        6983885.58         STORAGE CHANGE =        1206294.69
       --------------                             --------------
         LAND SURFACE =        5426161.22           LAND SURFACE =        1230031.83
            SOIL ZONE =        4162303.71              SOIL ZONE =         -17895.21
     UNSATURATED ZONE =       -3226681.24       UNSATURATED ZONE =          -3385.52
       SATURATED ZONE =         622100.41         SATURATED ZONE =          -2456.44

 OVERALL BUDGET ERROR =          18144.85           BUDGET ERROR =            -19.62


  PERCENT DISCREPANCY =              0.16    PERCENT DISCREPANCY =             -0.00



1
 SUMMARY VOLUMETRIC BUDGET FOR GSFLOW 
 DATE: 03 31 1991              CUMULATIVE TIME STEP:      31
 MODFLOW STRESS PERIOD      7     CURRENT TIME STEP:     182     ITERATIONS:       6

 -----------------------------------------------------------------------------------

   CUMULATIVE VOLUMES               L**3   RATES FOR THIS TIME STEP           L**3/T
   ------------------                      ------------------------

                                     IN                                         IN
                                     --                                         --
        PRECIPITATION =        1.2495D+07          PRECIPITATION =                  
           STREAMFLOW =                               STREAMFLOW =                  
     GW BOUNDARY FLOW =             59.46       GW BOUNDARY FLOW =              1.06


                                    OUT                                        OUT
                                    ---                                        ---
   EVAPOTRANSPIRATION =        2647441.65     EVAPOTRANSPIRATION =          47900.58
           STREAMFLOW =        2274502.26             STREAMFLOW =          22537.20
     GW BOUNDARY FLOW =           6504.55       GW BOUNDARY FLOW =             35.03

   INFLOWS - OUTFLOWS =        7566936.28     INFLOWS - OUTFLOWS =         -70471.75
             --------                                   --------

 TOTAL STORAGE CHANGE =        7547602.72         STORAGE CHANGE =         -71316.55
       --------------                             --------------
         LAND SURFACE =        5977198.26           LAND SURFACE =        -148137.48
            SOIL ZONE =        4216563.08              SOIL ZONE =          81742.62
     UNSATURATED ZONE =       -3250271.92       UNSATURATED ZONE =          -2359.02
       SATURATED ZONE =         604111.61         SATURATED ZONE =          -2562.70

 OVERALL BUDGET ERROR =          19333.56           BUDGET ERROR =            844.80


  PERCENT DISCREPANCY =              0.15    PERCENT DISCREPANCY =              1.19



1
 SUMMARY VOLUMETRIC BUDGET FOR GSFLOW 
 DATE: 04 07 1991              CUMULATIVE TIME STEP:       7
 MODFLOW STRESS PERIOD      8     CURRENT TIME STEP:     189     ITERATIONS:       7

 -----------------------------------------------------------------------------------

   CUMULATIVE VOLUMES               L**3   RATES FOR THIS TIME STEP           L**3/T
   ------------------                      ------------------------

                                     IN                                         IN
                                     --                                         --
        PRECIPITATION =        1.3018D+07          PRECIPITATION =                  
           STREAMFLOW =                               STREAMFLOW =                  
     GW BOUNDARY FLOW =             67.06       GW BOUNDARY FLOW =              1.11


                                    OUT                                        OUT
                                    ---                                        ---
   EVAPOTRANSPIRATION =        2955169.84     EVAPOTRANSPIRATION =          15898.60
           STREAMFLOW =        2599671.87             STREAMFLOW =          65015.04
     GW BOUNDARY FLOW =           6752.05       GW BOUNDARY FLOW =             35.62

   INFLOWS - OUTFLOWS =        7456210.05     INFLOWS - OUTFLOWS =         -80948.16
             --------                                   --------

 TOTAL STORAGE CHANGE =        7428946.39         STORAGE CHANGE =         -81286.19
       --------------                             --------------
         LAND SURFACE =        4335933.24           LAND SURFACE =         -73164.41
            SOIL ZONE =        5729977.60              SOIL ZONE =         -15521.09
     UNSATURATED ZONE =       -3226210.64       UNSATURATED ZONE =           9343.09
       SATURATED ZONE =         589244.24         SATURATED ZONE =          -1943.82

 OVERALL BUDGET ERROR =          27263.65           BUDGET ERROR =            338.03


  PERCENT DISCREPANCY =              0.21    PERCENT DISCREPANCY =              0.42



1
 SUMMARY VOLUMETRIC BUDGET FOR GSFLOW 
 DATE: 04 14 1991              CUMULATIVE TIME STEP:      14
 MODFLOW STRESS PERIOD      8     CURRENT TIME STEP:     196     ITERATIONS:       7

 -----------------------------------------------------------------------------------

   CUMULATIVE VOLUMES               L**3   RATES FOR THIS TIME STEP           L**3/T
   ------------------                      ------------------------

                                     IN                                         IN
                                     --                                         --
        PRECIPITATION =        1.3018D+07          PRECIPITATION =                  
           STREAMFLOW =                               STREAMFLOW =                  
     GW BOUNDARY FLOW =             74.98       GW BOUNDARY FLOW =              1.15


                                    OUT                                        OUT
                                    ---                                        ---
   EVAPOTRANSPIRATION =        3138997.48     EVAPOTRANSPIRATION =          42038.40
           STREAMFLOW =        3100901.72             STREAMFLOW =          76229.91
     GW BOUNDARY FLOW =           7001.45       GW BOUNDARY FLOW =             35.64

   INFLOWS - OUTFLOWS =        6770911.06     INFLOWS - OUTFLOWS =        -118302.80
             --------                                   --------

 TOTAL STORAGE CHANGE =        6740690.84         STORAGE CHANGE =        -119068.27
       --------------                             --------------
         LAND SURFACE =        3672284.11           LAND SURFACE =        -192335.10
            SOIL ZONE =        5655742.87              SOIL ZONE =          66470.17
     UNSATURATED ZONE =       -3163963.70       UNSATURATED ZONE =           8429.27
       SATURATED ZONE =         576625.28         SATURATED ZONE =          -1632.66

 OVERALL BUDGET ERROR =          30220.23           BUDGET ERROR =            765.46


  PERCENT DISCREPANCY =              0.23    PERCENT DISCREPANCY =              0.64



1
 SUMMARY VOLUMETRIC BUDGET FOR GSFLOW 
 DATE: 04 21 1991              CUMULATIVE TIME STEP:      21
 MODFLOW STRESS PERIOD      8     CURRENT TIME STEP:     203     ITERATIONS:       9

 -----------------------------------------------------------------------------------

   CUMULATIVE VOLUMES               L**3   RATES FOR THIS TIME STEP           L**3/T
   ------------------                      ------------------------

                                     IN                                         IN
                                     --                                         --
        PRECIPITATION =        1.3034D+07          PRECIPITATION =                  
           STREAMFLOW =                               STREAMFLOW =                  
     GW BOUNDARY FLOW =             83.20       GW BOUNDARY FLOW =              1.19


                                    OUT                                        OUT
                                    ---                                        ---
   EVAPOTRANSPIRATION =        3392492.82     EVAPOTRANSPIRATION =          46823.54
           STREAMFLOW =        3676259.01             STREAMFLOW =          93902.37
     GW BOUNDARY FLOW =           7251.07       GW BOUNDARY FLOW =             35.77

   INFLOWS - OUTFLOWS =        5958142.39     INFLOWS - OUTFLOWS =        -140760.49
             --------                                   --------

 TOTAL STORAGE CHANGE =        5923913.53         STORAGE CHANGE =        -141379.14
       --------------                             --------------
         LAND SURFACE =        2500870.94           LAND SURFACE =        -216968.59
            SOIL ZONE =        5957487.89              SOIL ZONE =          66255.72
     UNSATURATED ZONE =       -3100256.50       UNSATURATED ZONE =          10647.52
       SATURATED ZONE =         565808.58         SATURATED ZONE =          -1313.84

 OVERALL BUDGET ERROR =          34228.86           BUDGET ERROR =            618.66


  PERCENT DISCREPANCY =              0.26    PERCENT DISCREPANCY =              0.44



1
 SUMMARY VOLUMETRIC BUDGET FOR GSFLOW 
 DATE: 04 28 1991              CUMULATIVE TIME STEP:      28
 MODFLOW STRESS PERIOD      8     CURRENT TIME STEP:     210     ITERATIONS:       7

 -----------------------------------------------------------------------------------

   CUMULATIVE VOLUMES               L**3   RATES FOR THIS TIME STEP           L**3/T
   ------------------                      ------------------------

                                     IN                                         IN
                                     --                                         --
        PRECIPITATION =        1.3303D+07          PRECIPITATION =                  
           STREAMFLOW =                               STREAMFLOW =                  
     GW BOUNDARY FLOW =             91.69       GW BOUNDARY FLOW =              1.23


                                    OUT                                        OUT
                                    ---                                        ---
   EVAPOTRANSPIRATION =        3660489.92     EVAPOTRANSPIRATION =          58043.95
           STREAMFLOW =        4350226.49             STREAMFLOW =          95325.21
     GW BOUNDARY FLOW =           7501.26       GW BOUNDARY FLOW =             35.69

   INFLOWS - OUTFLOWS =        5285304.53     INFLOWS - OUTFLOWS =        -153403.62
             --------                                   --------

 TOTAL STORAGE CHANGE =        5247871.24         STORAGE CHANGE =        -153666.89
       --------------                             --------------
         LAND SURFACE =        1748447.64           LAND SURFACE =        -137153.52
            SOIL ZONE =        5965089.85              SOIL ZONE =         -26115.20
     UNSATURATED ZONE =       -3024499.57       UNSATURATED ZONE =          10358.93
       SATURATED ZONE =         558830.30         SATURATED ZONE =           -757.16

 OVERALL BUDGET ERROR =          37433.28           BUDGET ERROR =            263.27


  PERCENT DISCREPANCY =              0.28    PERCENT DISCREPANCY =              0.17



1
 SUMMARY VOLUMETRIC BUDGET FOR GSFLOW 
 DATE: 05 05 1991              CUMULATIVE TIME STEP:       5
 MODFLOW STRESS PERIOD      9     CURRENT TIME STEP:     217     ITERATIONS:      79

 -----------------------------------------------------------------------------------

   CUMULATIVE VOLUMES               L**3   RATES FOR THIS TIME STEP           L**3/T
   ------------------                      ------------------------

                                     IN                                         IN
                                     --                                         --
        PRECIPITATION =        1.3510D+07          PRECIPITATION =                  
           STREAMFLOW =                               STREAMFLOW =                  
     GW BOUNDARY FLOW =            100.44       GW BOUNDARY FLOW =              1.27


                                    OUT                                        OUT
                                    ---                                        ---
   EVAPOTRANSPIRATION =        4037103.05     EVAPOTRANSPIRATION =          90143.79
           STREAMFLOW =        4961459.41             STREAMFLOW =          87618.60
     GW BOUNDARY FLOW =           7749.90       GW BOUNDARY FLOW =             35.46

   INFLOWS - OUTFLOWS =        4503496.22     INFLOWS - OUTFLOWS =        -177796.59
             --------                                   --------

 TOTAL STORAGE CHANGE =        4464770.62         STORAGE CHANGE =        -177893.15
       --------------                             --------------
         LAND SURFACE =        1036420.07           LAND SURFACE =        -150153.36
            SOIL ZONE =        5835536.32              SOIL ZONE =         -36043.95
     UNSATURATED ZONE =       -2959765.36       UNSATURATED ZONE =           8075.09
       SATURATED ZONE =         552576.15         SATURATED ZONE =            229.00

 OVERALL BUDGET ERROR =          38725.60           BUDGET ERROR =             96.57


  PERCENT DISCREPANCY =              0.29    PERCENT DISCREPANCY =              0.05



1
 SUMMARY VOLUMETRIC BUDGET FOR GSFLOW 
 DATE: 05 12 1991              CUMULATIVE TIME STEP:      12
 MODFLOW STRESS PERIOD      9     CURRENT TIME STEP:     224     ITERATIONS:       7

 -----------------------------------------------------------------------------------

   CUMULATIVE VOLUMES               L**3   RATES FOR THIS TIME STEP           L**3/T
   ------------------                      ------------------------

                                     IN                                         IN
                                     --                                         --
        PRECIPITATION =        1.4029D+07          PRECIPITATION =                  
           STREAMFLOW =                               STREAMFLOW =                  
     GW BOUNDARY FLOW =            109.46       GW BOUNDARY FLOW =              1.30


                                    OUT                                        OUT
                                    ---                                        ---
   EVAPOTRANSPIRATION =        4432339.43     EVAPOTRANSPIRATION =          68730.40
           STREAMFLOW =        5529764.11             STREAMFLOW =          84386.61
     GW BOUNDARY FLOW =           7996.80       GW BOUNDARY FLOW =             35.23

   INFLOWS - OUTFLOWS =        4059231.28     INFLOWS - OUTFLOWS =        -153150.93
             --------                                   --------

 TOTAL STORAGE CHANGE =        4018931.28         STORAGE CHANGE =        -153174.78
       --------------                             --------------
         LAND SURFACE =         579124.41           LAND SURFACE =        -205427.93
            SOIL ZONE =        5794506.39              SOIL ZONE =          45047.38
     UNSATURATED ZONE =       -2899530.11       UNSATURATED ZONE =           8435.84
       SATURATED ZONE =         544826.72         SATURATED ZONE =          -1230.13

 OVERALL BUDGET ERROR =          40300.00           BUDGET ERROR =             23.85


  PERCENT DISCREPANCY =              0.29    PERCENT DISCREPANCY =              0.02



1
 SUMMARY VOLUMETRIC BUDGET FOR GSFLOW 
 DATE: 05 19 1991              CUMULATIVE TIME STEP:      19
 MODFLOW STRESS PERIOD      9     CURRENT TIME STEP:     231     ITERATIONS:       7

 -----------------------------------------------------------------------------------

   CUMULATIVE VOLUMES               L**3   RATES FOR THIS TIME STEP           L**3/T
   ------------------                      ------------------------

                                     IN                                         IN
                                     --                                         --
        PRECIPITATION =        1.4365D+07          PRECIPITATION =                  
           STREAMFLOW =                               STREAMFLOW =                  
     GW BOUNDARY FLOW =            118.74       GW BOUNDARY FLOW =              1.34


                                    OUT                                        OUT
                                    ---                                        ---
   EVAPOTRANSPIRATION =        4870589.19     EVAPOTRANSPIRATION =          20369.32
           STREAMFLOW =        6023196.88             STREAMFLOW =          62446.39
     GW BOUNDARY FLOW =           8241.49       GW BOUNDARY FLOW =             34.77

   INFLOWS - OUTFLOWS =        3463469.50     INFLOWS - OUTFLOWS =         -82849.14
             --------                                   --------

 TOTAL STORAGE CHANGE =        3422429.34         STORAGE CHANGE =         -82848.15
       --------------                             --------------
         LAND SURFACE =         228252.15           LAND SURFACE =         -22354.64
            SOIL ZONE =        5511147.48              SOIL ZONE =         -64559.84
     UNSATURATED ZONE =       -2852482.02       UNSATURATED ZONE =           5400.57
       SATURATED ZONE =         535507.43         SATURATED ZONE =          -1334.30

 OVERALL BUDGET ERROR =          41040.16           BUDGET ERROR =             -0.98


  PERCENT DISCREPANCY =              0.29    PERCENT DISCREPANCY =             -0.00



1
 SUMMARY VOLUMETRIC BUDGET FOR GSFLOW 
 DATE: 05 26 1991              CUMULATIVE TIME STEP:      26
 MODFLOW STRESS PERIOD      9     CURRENT TIME STEP:     238     ITERATIONS:       6

 -----------------------------------------------------------------------------------

   CUMULATIVE VOLUMES               L**3   RATES FOR THIS TIME STEP           L**3/T
   ------------------                      ------------------------

                                     IN                                         IN
                                     --                                         --
        PRECIPITATION =        1.4426D+07          PRECIPITATION =                  
           STREAMFLOW =                               STREAMFLOW =                  
     GW BOUNDARY FLOW =            128.31       GW BOUNDARY FLOW =              1.38


                                    OUT                                        OUT
                                    ---                                        ---
   EVAPOTRANSPIRATION =        5554747.15     EVAPOTRANSPIRATION =          76900.69
           STREAMFLOW =        6377686.46             STREAMFLOW =          37438.72
     GW BOUNDARY FLOW =           8482.96       GW BOUNDARY FLOW =             34.21

   INFLOWS - OUTFLOWS =        2485709.35     INFLOWS - OUTFLOWS =        -114372.24
             --------                                   --------

 TOTAL STORAGE CHANGE =        2444531.31         STORAGE CHANGE =        -114368.86
       --------------                             --------------
         LAND SURFACE =          55233.90           LAND SURFACE =          -8157.37
            SOIL ZONE =        4698706.38              SOIL ZONE =        -103875.20
     UNSATURATED ZONE =       -2833285.26       UNSATURATED ZONE =           -290.44
       SATURATED ZONE =         523871.53         SATURATED ZONE =          -2045.92

 OVERALL BUDGET ERROR =          41178.04           BUDGET ERROR =             -3.38


  PERCENT DISCREPANCY =              0.29    PERCENT DISCREPANCY =             -0.00



1
 SUMMARY VOLUMETRIC BUDGET FOR GSFLOW 
 DATE: 06 02 1991              CUMULATIVE TIME STEP:       2
 MODFLOW STRESS PERIOD     10     CURRENT TIME STEP:     245     ITERATIONS:       6

 -----------------------------------------------------------------------------------

   CUMULATIVE VOLUMES               L**3   RATES FOR THIS TIME STEP           L**3/T
   ------------------                      ------------------------

                                     IN                                         IN
                                     --                                         --
        PRECIPITATION =        1.4671D+07          PRECIPITATION =                  
           STREAMFLOW =                               STREAMFLOW =                  
     GW BOUNDARY FLOW =            138.17       GW BOUNDARY FLOW =              1.43


                                    OUT                                        OUT
                                    ---                                        ---
   EVAPOTRANSPIRATION =        6143285.14     EVAPOTRANSPIRATION =         127566.90
           STREAMFLOW =        6605063.41             STREAMFLOW =          28439.87
     GW BOUNDARY FLOW =           8721.13       GW BOUNDARY FLOW =             33.88

   INFLOWS - OUTFLOWS =        1914043.30     INFLOWS - OUTFLOWS =        -156039.22
             --------                                   --------

 TOTAL STORAGE CHANGE =        1872361.59         STORAGE CHANGE =        -156032.74
       --------------                             --------------
         LAND SURFACE =          19760.70           LAND SURFACE =          -4094.13
            SOIL ZONE =        4193273.50              SOIL ZONE =        -146203.87
     UNSATURATED ZONE =       -2847477.93       UNSATURATED ZONE =          -2961.37
       SATURATED ZONE =         506800.12         SATURATED ZONE =          -2773.44

 OVERALL BUDGET ERROR =          41681.71           BUDGET ERROR =             -6.48


  PERCENT DISCREPANCY =              0.28    PERCENT DISCREPANCY =             -0.00



1
 SUMMARY VOLUMETRIC BUDGET FOR GSFLOW 
 DATE: 06 09 1991              CUMULATIVE TIME STEP:       9
 MODFLOW STRESS PERIOD     10     CURRENT TIME STEP:     252     ITERATIONS:       7

 -----------------------------------------------------------------------------------

   CUMULATIVE VOLUMES               L**3   RATES FOR THIS TIME STEP           L**3/T
   ------------------                      ------------------------

                                     IN                                         IN
                                     --                                         --
        PRECIPITATION =        1.4671D+07          PRECIPITATION =                  
           STREAMFLOW =                               STREAMFLOW =                  
     GW BOUNDARY FLOW =            148.34       GW BOUNDARY FLOW =              1.47


                                    OUT                                        OUT
                                    ---                                        ---
   EVAPOTRANSPIRATION =        6931767.05     EVAPOTRANSPIRATION =         172470.54
           STREAMFLOW =        6763649.58             STREAMFLOW =          19103.82
     GW BOUNDARY FLOW =           8956.78       GW BOUNDARY FLOW =             33.52

   INFLOWS - OUTFLOWS =         966749.73     INFLOWS - OUTFLOWS =        -191606.40
             --------                                   --------

 TOTAL STORAGE CHANGE =         925126.54         STORAGE CHANGE =        -191598.88
       --------------                             --------------
         LAND SURFACE =           3957.39           LAND SURFACE =          -2186.13
            SOIL ZONE =        3319912.57              SOIL ZONE =        -179548.47
     UNSATURATED ZONE =       -2882609.98       UNSATURATED ZONE =          -6085.54
       SATURATED ZONE =         483860.91         SATURATED ZONE =          -3778.81

 OVERALL BUDGET ERROR =          41623.19           BUDGET ERROR =             -7.52


  PERCENT DISCREPANCY =              0.28    PERCENT DISCREPANCY =             -0.00



1
 SUMMARY VOLUMETRIC BUDGET FOR GSFLOW 
 DATE: 06 16 1991              CUMULATIVE TIME STEP:      16
 MODFLOW STRESS PERIOD     10     CURRENT TIME STEP:     259     ITERATIONS:       6

 -----------------------------------------------------------------------------------

   CUMULATIVE VOLUMES               L**3   RATES FOR THIS TIME STEP           L**3/T
   ------------------                      ------------------------

                                     IN                                         IN
                                     --                                         --
        PRECIPITATION =        1.4671D+07          PRECIPITATION =                  
           STREAMFLOW =                               STREAMFLOW =                  
     GW BOUNDARY FLOW =            158.81       GW BOUNDARY FLOW =              1.52


                                    OUT                                        OUT
                                    ---                                        ---
   EVAPOTRANSPIRATION =        7948405.56     EVAPOTRANSPIRATION =         117015.04
           STREAMFLOW =        6866744.34             STREAMFLOW =          12832.75
     GW BOUNDARY FLOW =           9188.87       GW BOUNDARY FLOW =             33.04

   INFLOWS - OUTFLOWS =        -153205.15     INFLOWS - OUTFLOWS =        -129879.31
             --------                                   --------

 TOTAL STORAGE CHANGE =        -194755.13         STORAGE CHANGE =        -129866.26
       --------------                             --------------
         LAND SURFACE =            106.65           LAND SURFACE =            -66.98
            SOIL ZONE =        2318177.76              SOIL ZONE =        -108567.26
     UNSATURATED ZONE =       -2964833.08       UNSATURATED ZONE =         -15786.73
       SATURATED ZONE =         451787.44         SATURATED ZONE =          -5445.35

 OVERALL BUDGET ERROR =          41549.98           BUDGET ERROR =            -13.05


  PERCENT DISCREPANCY =              0.28    PERCENT DISCREPANCY =             -0.01



1
 SUMMARY VOLUMETRIC BUDGET FOR GSFLOW 
 DATE: 06 23 1991              CUMULATIVE TIME STEP:      23
 MODFLOW STRESS PERIOD     10     CURRENT TIME STEP:     266     ITERATIONS:       7

 -----------------------------------------------------------------------------------

   CUMULATIVE VOLUMES               L**3   RATES FOR THIS TIME STEP           L**3/T
   ------------------                      ------------------------

                                     IN                                         IN
                                     --                                         --
        PRECIPITATION =        1.4671D+07          PRECIPITATION =                  
           STREAMFLOW =                               STREAMFLOW =                  
     GW BOUNDARY FLOW =            169.59       GW BOUNDARY FLOW =              1.56


                                    OUT                                        OUT
                                    ---                                        ---
   EVAPOTRANSPIRATION =        8490942.14     EVAPOTRANSPIRATION =          38766.86
           STREAMFLOW =        6948740.16             STREAMFLOW =          11876.05
     GW BOUNDARY FLOW =           9419.46       GW BOUNDARY FLOW =             32.92

   INFLOWS - OUTFLOWS =        -777957.37     INFLOWS - OUTFLOWS =         -50674.27
             --------                                   --------

 TOTAL STORAGE CHANGE =        -819427.86         STORAGE CHANGE =         -50665.68
       --------------                             --------------
         LAND SURFACE =             16.57           LAND SURFACE =             -3.65
            SOIL ZONE =        1847238.97              SOIL ZONE =         -31668.83
     UNSATURATED ZONE =       -3074623.92       UNSATURATED ZONE =         -12640.14
       SATURATED ZONE =         407933.97         SATURATED ZONE =          -6353.13

 OVERALL BUDGET ERROR =          41470.49           BUDGET ERROR =             -8.58


  PERCENT DISCREPANCY =              0.27    PERCENT DISCREPANCY =             -0.02



1
 SUMMARY VOLUMETRIC BUDGET FOR GSFLOW 
 DATE: 06 30 1991              CUMULATIVE TIME STEP:      30
 MODFLOW STRESS PERIOD     10     CURRENT TIME STEP:     273     ITERATIONS:       7

 -----------------------------------------------------------------------------------

   CUMULATIVE VOLUMES               L**3   RATES FOR THIS TIME STEP           L**3/T
   ------------------                      ------------------------

                                     IN                                         IN
[...]
                                    ---                                        ---
   EVAPOTRANSPIRATION =        7.2751D+07     EVAPOTRANSPIRATION =          72833.66
           STREAMFLOW =        7.2245D+07             STREAMFLOW =           7694.12
     GW BOUNDARY FLOW =          50962.81       GW BOUNDARY FLOW =             24.12

   INFLOWS - OUTFLOWS =       -1.1532D+07     INFLOWS - OUTFLOWS =         -80548.46
             --------                                   --------

 TOTAL STORAGE CHANGE =       -1.1853D+07         STORAGE CHANGE =         -80398.48
       --------------                             --------------
         LAND SURFACE =         179293.22           LAND SURFACE =         -11102.33
            SOIL ZONE =        1384459.15              SOIL ZONE =         -50642.33
     UNSATURATED ZONE =           9321.48       UNSATURATED ZONE =         -11793.18
       SATURATED ZONE =       -1.3426D+07         SATURATED ZONE =          -6861.15

 OVERALL BUDGET ERROR =         320314.25           BUDGET ERROR =           -149.98


  PERCENT DISCREPANCY =              0.22    PERCENT DISCREPANCY =             -0.19



1
 SUMMARY VOLUMETRIC BUDGET FOR GSFLOW 
 DATE: 09 03 1995              CUMULATIVE TIME STEP:       3
 MODFLOW STRESS PERIOD     61     CURRENT TIME STEP:    1799     ITERATIONS:       7

 -----------------------------------------------------------------------------------

   CUMULATIVE VOLUMES               L**3   RATES FOR THIS TIME STEP           L**3/T
   ------------------                      ------------------------

                                     IN                                         IN
                                     --                                         --
        PRECIPITATION =        1.3351D+08          PRECIPITATION =                  
           STREAMFLOW =                               STREAMFLOW =                  
     GW BOUNDARY FLOW =           5627.08       GW BOUNDARY FLOW =              3.53


                                    OUT                                        OUT
                                    ---                                        ---
   EVAPOTRANSPIRATION =        7.3231D+07     EVAPOTRANSPIRATION =          63252.57
           STREAMFLOW =        7.2294D+07             STREAMFLOW =           6803.35
     GW BOUNDARY FLOW =          51131.14       GW BOUNDARY FLOW =             23.99

   INFLOWS - OUTFLOWS =       -1.2062D+07     INFLOWS - OUTFLOWS =         -70076.39
             --------                                   --------

 TOTAL STORAGE CHANGE =       -1.2382D+07         STORAGE CHANGE =         -70081.95
       --------------                             --------------
         LAND SURFACE =         114525.52           LAND SURFACE =          -7766.54
            SOIL ZONE =        1051489.90              SOIL ZONE =         -43680.97
     UNSATURATED ZONE =         -68468.65       UNSATURATED ZONE =         -10760.79
       SATURATED ZONE =       -1.3480D+07         SATURATED ZONE =          -7874.17

 OVERALL BUDGET ERROR =         319735.05           BUDGET ERROR =              5.55


  PERCENT DISCREPANCY =              0.22    PERCENT DISCREPANCY =              0.01



1
 SUMMARY VOLUMETRIC BUDGET FOR GSFLOW 
 DATE: 09 10 1995              CUMULATIVE TIME STEP:      10
 MODFLOW STRESS PERIOD     61     CURRENT TIME STEP:    1806     ITERATIONS:       7

 -----------------------------------------------------------------------------------

   CUMULATIVE VOLUMES               L**3   RATES FOR THIS TIME STEP           L**3/T
   ------------------                      ------------------------

                                     IN                                         IN
                                     --                                         --
        PRECIPITATION =        1.3351D+08          PRECIPITATION =                  
           STREAMFLOW =                               STREAMFLOW =                  
     GW BOUNDARY FLOW =           5652.15       GW BOUNDARY FLOW =              3.62


                                    OUT                                        OUT
                                    ---                                        ---
   EVAPOTRANSPIRATION =        7.3585D+07     EVAPOTRANSPIRATION =          47337.82
           STREAMFLOW =        7.2343D+07             STREAMFLOW =           6786.47
     GW BOUNDARY FLOW =          51299.22       GW BOUNDARY FLOW =             24.00

   INFLOWS - OUTFLOWS =       -1.2465D+07     INFLOWS - OUTFLOWS =         -54144.67
             --------                                   --------

 TOTAL STORAGE CHANGE =       -1.2784D+07         STORAGE CHANGE =         -54149.29
       --------------                             --------------
         LAND SURFACE =          75925.35           LAND SURFACE =          -4673.87
            SOIL ZONE =         810907.51              SOIL ZONE =         -31504.66
     UNSATURATED ZONE =        -141139.62       UNSATURATED ZONE =         -10402.15
       SATURATED ZONE =       -1.3531D+07         SATURATED ZONE =          -7569.12

 OVERALL BUDGET ERROR =         319779.44           BUDGET ERROR =              4.61


  PERCENT DISCREPANCY =              0.22    PERCENT DISCREPANCY =              0.01



1
 SUMMARY VOLUMETRIC BUDGET FOR GSFLOW 
 DATE: 09 17 1995              CUMULATIVE TIME STEP:      17
 MODFLOW STRESS PERIOD     61     CURRENT TIME STEP:    1813     ITERATIONS:       7

 -----------------------------------------------------------------------------------

   CUMULATIVE VOLUMES               L**3   RATES FOR THIS TIME STEP           L**3/T
   ------------------                      ------------------------

                                     IN                                         IN
                                     --                                         --
        PRECIPITATION =        1.3351D+08          PRECIPITATION =                  
           STREAMFLOW =                               STREAMFLOW =                  
     GW BOUNDARY FLOW =           5677.85       GW BOUNDARY FLOW =              3.71


                                    OUT                                        OUT
                                    ---                                        ---
   EVAPOTRANSPIRATION =        7.3966D+07     EVAPOTRANSPIRATION =          43172.44
           STREAMFLOW =        7.2383D+07             STREAMFLOW =           5933.51
     GW BOUNDARY FLOW =          51466.49       GW BOUNDARY FLOW =             23.92

   INFLOWS - OUTFLOWS =       -1.2887D+07     INFLOWS - OUTFLOWS =         -49126.15
             --------                                   --------

 TOTAL STORAGE CHANGE =       -1.3206D+07         STORAGE CHANGE =         -49130.45
       --------------                             --------------
         LAND SURFACE =          44186.54           LAND SURFACE =          -3043.17
            SOIL ZONE =         566116.34              SOIL ZONE =         -26504.46
     UNSATURATED ZONE =        -217918.60       UNSATURATED ZONE =         -10750.52
       SATURATED ZONE =       -1.3599D+07         SATURATED ZONE =          -8832.80

 OVERALL BUDGET ERROR =         319809.70           BUDGET ERROR =              4.29


  PERCENT DISCREPANCY =              0.22    PERCENT DISCREPANCY =              0.01



1
 SUMMARY VOLUMETRIC BUDGET FOR GSFLOW 
 DATE: 09 24 1995              CUMULATIVE TIME STEP:      24
 MODFLOW STRESS PERIOD     61     CURRENT TIME STEP:    1820     ITERATIONS:       6

 -----------------------------------------------------------------------------------

   CUMULATIVE VOLUMES               L**3   RATES FOR THIS TIME STEP           L**3/T
   ------------------                      ------------------------

                                     IN                                         IN
                                     --                                         --
        PRECIPITATION =        1.3351D+08          PRECIPITATION =                  
           STREAMFLOW =                               STREAMFLOW =                  
     GW BOUNDARY FLOW =           5704.16       GW BOUNDARY FLOW =              3.79


                                    OUT                                        OUT
                                    ---                                        ---
   EVAPOTRANSPIRATION =        7.4232D+07     EVAPOTRANSPIRATION =          27451.46
           STREAMFLOW =        7.2425D+07             STREAMFLOW =           6565.71
     GW BOUNDARY FLOW =          51633.90       GW BOUNDARY FLOW =             23.96

   INFLOWS - OUTFLOWS =       -1.3194D+07     INFLOWS - OUTFLOWS =         -34037.34
             --------                                   --------

 TOTAL STORAGE CHANGE =       -1.3514D+07         STORAGE CHANGE =         -34042.85
       --------------                             --------------
         LAND SURFACE =          28055.76           LAND SURFACE =          -1559.79
            SOIL ZONE =         410206.95              SOIL ZONE =         -15474.98
     UNSATURATED ZONE =        -290073.66       UNSATURATED ZONE =          -9201.51
       SATURATED ZONE =       -1.3663D+07         SATURATED ZONE =          -7807.09

 OVERALL BUDGET ERROR =         319834.72           BUDGET ERROR =              5.51


  PERCENT DISCREPANCY =              0.22    PERCENT DISCREPANCY =              0.02



1
 SUMMARY VOLUMETRIC BUDGET FOR GSFLOW 
 DATE: 10 01 1995              CUMULATIVE TIME STEP:       1
 MODFLOW STRESS PERIOD     62     CURRENT TIME STEP:    1827     ITERATIONS:       6

 -----------------------------------------------------------------------------------

   CUMULATIVE VOLUMES               L**3   RATES FOR THIS TIME STEP           L**3/T
   ------------------                      ------------------------

                                     IN                                         IN
                                     --                                         --
        PRECIPITATION =        1.3351D+08          PRECIPITATION =                  
           STREAMFLOW =                               STREAMFLOW =                  
     GW BOUNDARY FLOW =           5731.03       GW BOUNDARY FLOW =              3.87


                                    OUT                                        OUT
                                    ---                                        ---
   EVAPOTRANSPIRATION =        7.4347D+07     EVAPOTRANSPIRATION =          16772.21
           STREAMFLOW =        7.2478D+07             STREAMFLOW =           7535.35
     GW BOUNDARY FLOW =          51802.20       GW BOUNDARY FLOW =             24.05

   INFLOWS - OUTFLOWS =       -1.3363D+07     INFLOWS - OUTFLOWS =         -24327.74
             --------                                   --------

 TOTAL STORAGE CHANGE =       -1.3683D+07         STORAGE CHANGE =         -24332.38
       --------------                             --------------
         LAND SURFACE =          22241.70           LAND SURFACE =           -699.89
            SOIL ZONE =         347408.50              SOIL ZONE =          -9177.19
     UNSATURATED ZONE =        -347924.33       UNSATURATED ZONE =          -8109.42
       SATURATED ZONE =       -1.3705D+07         SATURATED ZONE =          -6346.40

 OVERALL BUDGET ERROR =         319858.72           BUDGET ERROR =              4.64


  PERCENT DISCREPANCY =              0.22    PERCENT DISCREPANCY =              0.02



1
 SUMMARY VOLUMETRIC BUDGET FOR GSFLOW 
 DATE: 10 08 1995              CUMULATIVE TIME STEP:       8
 MODFLOW STRESS PERIOD     62     CURRENT TIME STEP:    1834     ITERATIONS:       6

 -----------------------------------------------------------------------------------

   CUMULATIVE VOLUMES               L**3   RATES FOR THIS TIME STEP           L**3/T
   ------------------                      ------------------------

                                     IN                                         IN
                                     --                                         --
        PRECIPITATION =        1.3351D+08          PRECIPITATION =                  
           STREAMFLOW =                               STREAMFLOW =                  
     GW BOUNDARY FLOW =           5758.45       GW BOUNDARY FLOW =              3.95


                                    OUT                                        OUT
                                    ---                                        ---
   EVAPOTRANSPIRATION =        7.4470D+07     EVAPOTRANSPIRATION =          15501.29
           STREAMFLOW =        7.2529D+07             STREAMFLOW =           7434.86
     GW BOUNDARY FLOW =          51970.46       GW BOUNDARY FLOW =             24.05

   INFLOWS - OUTFLOWS =       -1.3537D+07     INFLOWS - OUTFLOWS =         -22956.25
             --------                                   --------

 TOTAL STORAGE CHANGE =       -1.3857D+07         STORAGE CHANGE =         -22959.52
       --------------                             --------------
         LAND SURFACE =          18179.46           LAND SURFACE =           -628.45
            SOIL ZONE =         280055.88              SOIL ZONE =          -8157.09
     UNSATURATED ZONE =        -402720.02       UNSATURATED ZONE =          -7457.69
       SATURATED ZONE =       -1.3753D+07         SATURATED ZONE =          -6716.80

 OVERALL BUDGET ERROR =         319877.40           BUDGET ERROR =              3.27


  PERCENT DISCREPANCY =              0.22    PERCENT DISCREPANCY =              0.01



1
 SUMMARY VOLUMETRIC BUDGET FOR GSFLOW 
 DATE: 10 15 1995              CUMULATIVE TIME STEP:      15
 MODFLOW STRESS PERIOD     62     CURRENT TIME STEP:    1841     ITERATIONS:       5

 -----------------------------------------------------------------------------------

   CUMULATIVE VOLUMES               L**3   RATES FOR THIS TIME STEP           L**3/T
   ------------------                      ------------------------

                                     IN                                         IN
                                     --                                         --
        PRECIPITATION =        1.3351D+08          PRECIPITATION =                  
           STREAMFLOW =                               STREAMFLOW =                  
     GW BOUNDARY FLOW =           5786.37       GW BOUNDARY FLOW =              4.02


                                    OUT                                        OUT
                                    ---                                        ---
   EVAPOTRANSPIRATION =        7.4587D+07     EVAPOTRANSPIRATION =          18092.35
           STREAMFLOW =        7.2580D+07             STREAMFLOW =           7015.02
     GW BOUNDARY FLOW =          52138.68       GW BOUNDARY FLOW =             24.02

   INFLOWS - OUTFLOWS =       -1.3704D+07     INFLOWS - OUTFLOWS =         -25127.37
             --------                                   --------

 TOTAL STORAGE CHANGE =       -1.4024D+07         STORAGE CHANGE =         -25130.96
       --------------                             --------------
         LAND SURFACE =          14037.99           LAND SURFACE =           -696.58
            SOIL ZONE =         219357.48              SOIL ZONE =          -9223.66
     UNSATURATED ZONE =        -452593.27       UNSATURATED ZONE =          -6980.24
       SATURATED ZONE =       -1.3805D+07         SATURATED ZONE =          -8230.99

 OVERALL BUDGET ERROR =         319886.93           BUDGET ERROR =              3.59


  PERCENT DISCREPANCY =              0.22    PERCENT DISCREPANCY =              0.01



1
 SUMMARY VOLUMETRIC BUDGET FOR GSFLOW 
 DATE: 10 22 1995              CUMULATIVE TIME STEP:      22
 MODFLOW STRESS PERIOD     62     CURRENT TIME STEP:    1848     ITERATIONS:       7

 -----------------------------------------------------------------------------------

   CUMULATIVE VOLUMES               L**3   RATES FOR THIS TIME STEP           L**3/T
   ------------------                      ------------------------

                                     IN                                         IN
                                     --                                         --
        PRECIPITATION =        1.3351D+08          PRECIPITATION =                  
           STREAMFLOW =                               STREAMFLOW =                  
     GW BOUNDARY FLOW =           5814.74       GW BOUNDARY FLOW =              4.08


                                    OUT                                        OUT
                                    ---                                        ---
   EVAPOTRANSPIRATION =        7.4690D+07     EVAPOTRANSPIRATION =           4706.90
           STREAMFLOW =        7.2630D+07             STREAMFLOW =           8175.76
     GW BOUNDARY FLOW =          52306.94       GW BOUNDARY FLOW =             24.13

   INFLOWS - OUTFLOWS =       -1.3858D+07     INFLOWS - OUTFLOWS =         -12902.71
             --------                                   --------

 TOTAL STORAGE CHANGE =       -1.4178D+07         STORAGE CHANGE =         -12903.73
       --------------                             --------------
         LAND SURFACE =          10452.80           LAND SURFACE =             -6.45
            SOIL ZONE =         168352.17              SOIL ZONE =          -2052.58
     UNSATURATED ZONE =        -499285.76       UNSATURATED ZONE =          -6200.44
       SATURATED ZONE =       -1.3858D+07         SATURATED ZONE =          -4644.78

 OVERALL BUDGET ERROR =         319899.62           BUDGET ERROR =              1.02


  PERCENT DISCREPANCY =              0.22    PERCENT DISCREPANCY =              0.01



1
 SUMMARY VOLUMETRIC BUDGET FOR GSFLOW 
 DATE: 10 29 1995              CUMULATIVE TIME STEP:      29
 MODFLOW STRESS PERIOD     62     CURRENT TIME STEP:    1855     ITERATIONS:       6

 -----------------------------------------------------------------------------------

   CUMULATIVE VOLUMES               L**3   RATES FOR THIS TIME STEP           L**3/T
   ------------------                      ------------------------

                                     IN                                         IN
                                     --                                         --
        PRECIPITATION =        1.3351D+08          PRECIPITATION =                  
           STREAMFLOW =                               STREAMFLOW =                  
     GW BOUNDARY FLOW =           5843.54       GW BOUNDARY FLOW =              4.14


                                    OUT                                        OUT
                                    ---                                        ---
   EVAPOTRANSPIRATION =        7.4756D+07     EVAPOTRANSPIRATION =          11339.53
           STREAMFLOW =        7.2685D+07             STREAMFLOW =           7516.57
     GW BOUNDARY FLOW =          52475.63       GW BOUNDARY FLOW =             24.08

   INFLOWS - OUTFLOWS =       -1.3979D+07     INFLOWS - OUTFLOWS =         -18876.04
             --------                                   --------

 TOTAL STORAGE CHANGE =       -1.4299D+07         STORAGE CHANGE =         -18877.48
       --------------                             --------------
         LAND SURFACE =           9254.99           LAND SURFACE =           -359.13
            SOIL ZONE =         138302.89              SOIL ZONE =          -5052.58
     UNSATURATED ZONE =        -543520.94       UNSATURATED ZONE =          -6250.57
       SATURATED ZONE =       -1.3903D+07         SATURATED ZONE =          -7215.71

 OVERALL BUDGET ERROR =         319908.64           BUDGET ERROR =              1.44


  PERCENT DISCREPANCY =              0.22    PERCENT DISCREPANCY =              0.01



