1
 SUMMARY VOLUMETRIC BUDGET FOR GSFLOW 
 DATE: 10 07 1990              CUMULATIVE TIME STEP:       7
 MODFLOW STRESS PERIOD      2     CURRENT TIME STEP:       7     ITERATIONS:       7

 -----------------------------------------------------------------------------------

   CUMULATIVE VOLUMES               L**3   RATES FOR THIS TIME STEP           L**3/T
   ------------------                      ------------------------

                                     IN                                         IN
                                     --                                         --
        PRECIPITATION =                            PRECIPITATION =                  
           STREAMFLOW =                               STREAMFLOW =                  
     GW BOUNDARY FLOW =                         GW BOUNDARY FLOW =                  


                                    OUT                                        OUT
                                    ---                                        ---
   EVAPOTRANSPIRATION =         385031.63     EVAPOTRANSPIRATION =          11801.34
           STREAMFLOW =          45661.61             STREAMFLOW =           8128.74
     GW BOUNDARY FLOW =            252.78       GW BOUNDARY FLOW =             36.30

   INFLOWS - OUTFLOWS =        -430946.01     INFLOWS - OUTFLOWS =         -19966.38
             --------                                   --------

 TOTAL STORAGE CHANGE =        -429349.30         STORAGE CHANGE =         -19938.27
       --------------                             --------------
         LAND SURFACE =                             LAND SURFACE =                  
            SOIL ZONE =         -33378.20              SOIL ZONE =           -943.72
     UNSATURATED ZONE =        -502794.46       UNSATURATED ZONE =         -33592.86
       SATURATED ZONE =         106823.37         SATURATED ZONE =          14598.31

 OVERALL BUDGET ERROR =          -1596.71           BUDGET ERROR =            -28.11


  PERCENT DISCREPANCY =             -0.37    PERCENT DISCREPANCY =             -0.14



1
 SUMMARY VOLUMETRIC BUDGET FOR GSFLOW 
 DATE: 10 14 1990              CUMULATIVE TIME STEP:      14
 MODFLOW STRESS PERIOD      2     CURRENT TIME STEP:      14     ITERATIONS:       6

 -----------------------------------------------------------------------------------

   CUMULATIVE VOLUMES               L**3   RATES FOR THIS TIME STEP           L**3/T
   ------------------                      ------------------------

                                     IN                                         IN
                                     --                                         --
        PRECIPITATION =                            PRECIPITATION =                  
           STREAMFLOW =                               STREAMFLOW =                  
     GW BOUNDARY FLOW =                         GW BOUNDARY FLOW =                  


                                    OUT                                        OUT
                                    ---                                        ---
   EVAPOTRANSPIRATION =         665235.67     EVAPOTRANSPIRATION =          42298.13
           STREAMFLOW =         100376.26             STREAMFLOW =           7413.77
     GW BOUNDARY FLOW =            506.61       GW BOUNDARY FLOW =             36.24

   INFLOWS - OUTFLOWS =        -766118.54     INFLOWS - OUTFLOWS =         -49748.13
             --------                                   --------

 TOTAL STORAGE CHANGE =        -764147.47         STORAGE CHANGE =         -49710.78
       --------------                             --------------
         LAND SURFACE =                             LAND SURFACE =                  
            SOIL ZONE =         -58187.15              SOIL ZONE =          -4381.88
     UNSATURATED ZONE =        -877795.90       UNSATURATED ZONE =         -52080.86
       SATURATED ZONE =         171835.58         SATURATED ZONE =           6751.97

 OVERALL BUDGET ERROR =          -1971.07           BUDGET ERROR =            -37.36


  PERCENT DISCREPANCY =             -0.26    PERCENT DISCREPANCY =             -0.08



1
 SUMMARY VOLUMETRIC BUDGET FOR GSFLOW 
 DATE: 10 21 1990              CUMULATIVE TIME STEP:      21
 MODFLOW STRESS PERIOD      2     CURRENT TIME STEP:      21     ITERATIONS:       6

 -----------------------------------------------------------------------------------

   CUMULATIVE VOLUMES               L**3   RATES FOR THIS TIME STEP           L**3/T
   ------------------                      ------------------------

                                     IN                                         IN
                                     --                                         --
        PRECIPITATION =         188432.87          PRECIPITATION =                  
           STREAMFLOW =                               STREAMFLOW =                  
     GW BOUNDARY FLOW =                         GW BOUNDARY FLOW =                  


                                    OUT                                        OUT
                                    ---                                        ---
   EVAPOTRANSPIRATION =         815245.66     EVAPOTRANSPIRATION =          41486.33
           STREAMFLOW =         163152.02             STREAMFLOW =          10149.84
     GW BOUNDARY FLOW =            760.80       GW BOUNDARY FLOW =             36.37

   INFLOWS - OUTFLOWS =        -790725.60     INFLOWS - OUTFLOWS =         -51672.54
             --------                                   --------

 TOTAL STORAGE CHANGE =        -789896.43         STORAGE CHANGE =         -51665.14
       --------------                             --------------
         LAND SURFACE =          18885.57           LAND SURFACE =         -43558.49
            SOIL ZONE =          47725.01              SOIL ZONE =           2341.29
     UNSATURATED ZONE =       -1091630.17       UNSATURATED ZONE =         -21396.47
       SATURATED ZONE =         235123.16         SATURATED ZONE =          10948.53

 OVERALL BUDGET ERROR =           -829.17           BUDGET ERROR =             -7.40


  PERCENT DISCREPANCY =             -0.08    PERCENT DISCREPANCY =             -0.01



1
 SUMMARY VOLUMETRIC BUDGET FOR GSFLOW 
 DATE: 10 28 1990              CUMULATIVE TIME STEP:      28
 MODFLOW STRESS PERIOD      2     CURRENT TIME STEP:      28     ITERATIONS:       6

 -----------------------------------------------------------------------------------

   CUMULATIVE VOLUMES               L**3   RATES FOR THIS TIME STEP           L**3/T
   ------------------                      ------------------------

                                     IN                                         IN
                                     --                                         --
        PRECIPITATION =         188432.87          PRECIPITATION =                  
           STREAMFLOW =                               STREAMFLOW =                  
     GW BOUNDARY FLOW =                         GW BOUNDARY FLOW =                  


                                    OUT                                        OUT
                                    ---                                        ---
   EVAPOTRANSPIRATION =         942802.32     EVAPOTRANSPIRATION =          11821.41
           STREAMFLOW =         224538.66             STREAMFLOW =           8923.26
     GW BOUNDARY FLOW =           1013.98       GW BOUNDARY FLOW =             36.12

   INFLOWS - OUTFLOWS =        -979922.09     INFLOWS - OUTFLOWS =         -20780.80
             --------                                   --------

 TOTAL STORAGE CHANGE =        -978982.78         STORAGE CHANGE =         -20771.53
       --------------                             --------------
         LAND SURFACE =                             LAND SURFACE =                  
            SOIL ZONE =          19801.76              SOIL ZONE =          -3445.79
     UNSATURATED ZONE =       -1275063.28       UNSATURATED ZONE =         -23214.02
       SATURATED ZONE =         276278.74         SATURATED ZONE =           5888.28

 OVERALL BUDGET ERROR =           -939.31           BUDGET ERROR =             -9.26


  PERCENT DISCREPANCY =             -0.08    PERCENT DISCREPANCY =             -0.04



1
 SUMMARY VOLUMETRIC BUDGET FOR GSFLOW 
 DATE: 11 04 1990              CUMULATIVE TIME STEP:       4
 MODFLOW STRESS PERIOD      3     CURRENT TIME STEP:      35     ITERATIONS:       6

 -----------------------------------------------------------------------------------

   CUMULATIVE VOLUMES               L**3   RATES FOR THIS TIME STEP           L**3/T
   ------------------                      ------------------------

                                     IN                                         IN
                                     --                                         --
        PRECIPITATION =         703113.06          PRECIPITATION =                  
           STREAMFLOW =                               STREAMFLOW =                  
     GW BOUNDARY FLOW =                         GW BOUNDARY FLOW =                  


                                    OUT                                        OUT
                                    ---                                        ---
   EVAPOTRANSPIRATION =        1003131.82     EVAPOTRANSPIRATION =          26062.18
           STREAMFLOW =         295112.76             STREAMFLOW =          10629.84
     GW BOUNDARY FLOW =           1267.02       GW BOUNDARY FLOW =             36.13

   INFLOWS - OUTFLOWS =        -596398.54     INFLOWS - OUTFLOWS =         -36728.15
             --------                                   --------

 TOTAL STORAGE CHANGE =        -600451.28         STORAGE CHANGE =         -37962.79
       --------------                             --------------
         LAND SURFACE =         132159.65           LAND SURFACE =        -160480.33
            SOIL ZONE =         351859.46              SOIL ZONE =         133193.99
     UNSATURATED ZONE =       -1420502.73       UNSATURATED ZONE =         -20037.38
       SATURATED ZONE =         336032.32         SATURATED ZONE =           9360.92

 OVERALL BUDGET ERROR =           4052.74           BUDGET ERROR =           1234.64

  ***WARNING, FLUX RATES OFF > 3%

  PERCENT DISCREPANCY =              0.31    PERCENT DISCREPANCY =              3.31



1
 SUMMARY VOLUMETRIC BUDGET FOR GSFLOW 
 DATE: 11 11 1990              CUMULATIVE TIME STEP:      11
 MODFLOW STRESS PERIOD      3     CURRENT TIME STEP:      42     ITERATIONS:       6

 -----------------------------------------------------------------------------------

   CUMULATIVE VOLUMES               L**3   RATES FOR THIS TIME STEP           L**3/T
   ------------------                      ------------------------

                                     IN                                         IN
                                     --                                         --
        PRECIPITATION =         703113.06          PRECIPITATION =                  
           STREAMFLOW =                               STREAMFLOW =                  
     GW BOUNDARY FLOW =                         GW BOUNDARY FLOW =                  


                                    OUT                                        OUT
                                    ---                                        ---
   EVAPOTRANSPIRATION =        1079213.23     EVAPOTRANSPIRATION =          12186.85
           STREAMFLOW =         366279.70             STREAMFLOW =           9667.83
     GW BOUNDARY FLOW =           1519.13       GW BOUNDARY FLOW =             35.93

   INFLOWS - OUTFLOWS =        -743898.99     INFLOWS - OUTFLOWS =         -21890.60
             --------                                   --------

 TOTAL STORAGE CHANGE =        -748074.96         STORAGE CHANGE =         -21881.93
       --------------                             --------------
         LAND SURFACE =            595.09           LAND SURFACE =          -1416.54
            SOIL ZONE =         425106.67              SOIL ZONE =          -5579.32
     UNSATURATED ZONE =       -1559629.10       UNSATURATED ZONE =         -19831.32
       SATURATED ZONE =         385852.34         SATURATED ZONE =           4945.25

 OVERALL BUDGET ERROR =           4175.97           BUDGET ERROR =             -8.67


  PERCENT DISCREPANCY =              0.29    PERCENT DISCREPANCY =             -0.04



1
 SUMMARY VOLUMETRIC BUDGET FOR GSFLOW 
 DATE: 11 18 1990              CUMULATIVE TIME STEP:      18
 MODFLOW STRESS PERIOD      3     CURRENT TIME STEP:      49     ITERATIONS:       6

 -----------------------------------------------------------------------------------

   CUMULATIVE VOLUMES               L**3   RATES FOR THIS TIME STEP           L**3/T
   ------------------                      ------------------------

                                     IN                                         IN
                                     --                                         --
        PRECIPITATION =         747883.35          PRECIPITATION =                  
           STREAMFLOW =                               STREAMFLOW =                  
     GW BOUNDARY FLOW =                         GW BOUNDARY FLOW =                  


                                    OUT                                        OUT
                                    ---                                        ---
   EVAPOTRANSPIRATION =        1150833.86     EVAPOTRANSPIRATION =           4989.35
           STREAMFLOW =         438045.90             STREAMFLOW =          10678.87
     GW BOUNDARY FLOW =           1770.44       GW BOUNDARY FLOW =             35.88

   INFLOWS - OUTFLOWS =        -842766.84     INFLOWS - OUTFLOWS =         -15704.10
             --------                                   --------

 TOTAL STORAGE CHANGE =        -846938.57         STORAGE CHANGE =         -15709.11
       --------------                             --------------
         LAND SURFACE =           7868.08           LAND SURFACE =          -3691.47
            SOIL ZONE =         407870.81              SOIL ZONE =           -669.05
     UNSATURATED ZONE =       -1692744.94       UNSATURATED ZONE =         -18604.46
       SATURATED ZONE =         430067.44         SATURATED ZONE =           7255.87

 OVERALL BUDGET ERROR =           4171.72           BUDGET ERROR =              5.00


  PERCENT DISCREPANCY =              0.26    PERCENT DISCREPANCY =              0.03



1
 SUMMARY VOLUMETRIC BUDGET FOR GSFLOW 
 DATE: 11 25 1990              CUMULATIVE TIME STEP:      25
 MODFLOW STRESS PERIOD      3     CURRENT TIME STEP:      56     ITERATIONS:       6

 -----------------------------------------------------------------------------------

   CUMULATIVE VOLUMES               L**3   RATES FOR THIS TIME STEP           L**3/T
   ------------------                      ------------------------

                                     IN                                         IN
                                     --                                         --
        PRECIPITATION =        1009043.38          PRECIPITATION =         186542.88
           STREAMFLOW =                               STREAMFLOW =                  
     GW BOUNDARY FLOW =                         GW BOUNDARY FLOW =                  


                                    OUT                                        OUT
                                    ---                                        ---
   EVAPOTRANSPIRATION =        1210387.91     EVAPOTRANSPIRATION =           3750.85
           STREAMFLOW =         514075.96             STREAMFLOW =          10884.29
     GW BOUNDARY FLOW =           2021.38       GW BOUNDARY FLOW =             35.79

   INFLOWS - OUTFLOWS =        -717441.87     INFLOWS - OUTFLOWS =         171871.94
             --------                                   --------

 TOTAL STORAGE CHANGE =        -723715.28         STORAGE CHANGE =         170020.11
       --------------                             --------------
         LAND SURFACE =          86180.68           LAND SURFACE =          69567.13
            SOIL ZONE =         531022.94              SOIL ZONE =         112080.73
     UNSATURATED ZONE =       -1820303.19       UNSATURATED ZONE =         -17907.74
       SATURATED ZONE =         479384.23         SATURATED ZONE =           6279.99

 OVERALL BUDGET ERROR =           6273.42           BUDGET ERROR =           1851.83


  PERCENT DISCREPANCY =              0.36    PERCENT DISCREPANCY =              1.00



1
 SUMMARY VOLUMETRIC BUDGET FOR GSFLOW 
 DATE: 12 02 1990              CUMULATIVE TIME STEP:       2
 MODFLOW STRESS PERIOD      4     CURRENT TIME STEP:      63     ITERATIONS:       6

 -----------------------------------------------------------------------------------

   CUMULATIVE VOLUMES               L**3   RATES FOR THIS TIME STEP           L**3/T
   ------------------                      ------------------------

                                     IN                                         IN
                                     --                                         --
        PRECIPITATION =        1449284.55          PRECIPITATION =                  
           STREAMFLOW =                               STREAMFLOW =                  
     GW BOUNDARY FLOW =                         GW BOUNDARY FLOW =                  


                                    OUT                                        OUT
                                    ---                                        ---
   EVAPOTRANSPIRATION =        1216883.17     EVAPOTRANSPIRATION =            234.54
           STREAMFLOW =         591334.39             STREAMFLOW =          11082.15
     GW BOUNDARY FLOW =           2271.86       GW BOUNDARY FLOW =             35.77

   INFLOWS - OUTFLOWS =        -361204.87     INFLOWS - OUTFLOWS =         -11352.45
             --------                                   --------

 TOTAL STORAGE CHANGE =        -368595.20         STORAGE CHANGE =         -11365.03
       --------------                             --------------
         LAND SURFACE =         486845.62           LAND SURFACE =           -339.04
            SOIL ZONE =         563283.30              SOIL ZONE =            142.51
     UNSATURATED ZONE =       -1943145.83       UNSATURATED ZONE =         -17255.29
       SATURATED ZONE =         524421.62         SATURATED ZONE =           6086.79

 OVERALL BUDGET ERROR =           7390.33           BUDGET ERROR =             12.58


  PERCENT DISCREPANCY =              0.41    PERCENT DISCREPANCY =              0.11



1
 SUMMARY VOLUMETRIC BUDGET FOR GSFLOW 
 DATE: 12 09 1990              CUMULATIVE TIME STEP:       9
 MODFLOW STRESS PERIOD      4     CURRENT TIME STEP:      70     ITERATIONS:       6

 -----------------------------------------------------------------------------------

   CUMULATIVE VOLUMES               L**3   RATES FOR THIS TIME STEP           L**3/T
   ------------------                      ------------------------

                                     IN                                         IN
                                     --                                         --
        PRECIPITATION =        1449284.55          PRECIPITATION =                  
           STREAMFLOW =                               STREAMFLOW =                  
     GW BOUNDARY FLOW =                         GW BOUNDARY FLOW =                  


                                    OUT                                        OUT
                                    ---                                        ---
   EVAPOTRANSPIRATION =        1291412.40     EVAPOTRANSPIRATION =          13356.01
           STREAMFLOW =         669089.36             STREAMFLOW =          10904.08
     GW BOUNDARY FLOW =           2521.82       GW BOUNDARY FLOW =             35.64

   INFLOWS - OUTFLOWS =        -513739.02     INFLOWS - OUTFLOWS =         -24295.73
             --------                                   --------

 TOTAL STORAGE CHANGE =        -525495.35         STORAGE CHANGE =         -24389.49
       --------------                             --------------
         LAND SURFACE =          67215.41           LAND SURFACE =         -45889.70
            SOIL ZONE =         907420.51              SOIL ZONE =          34153.91
     UNSATURATED ZONE =       -2060926.70       UNSATURATED ZONE =         -16478.24
       SATURATED ZONE =         560795.32         SATURATED ZONE =           3824.52

 OVERALL BUDGET ERROR =          11756.32           BUDGET ERROR =             93.76


  PERCENT DISCREPANCY =              0.60    PERCENT DISCREPANCY =              0.39



1
 SUMMARY VOLUMETRIC BUDGET FOR GSFLOW 
 DATE: 12 16 1990              CUMULATIVE TIME STEP:      16
 MODFLOW STRESS PERIOD      4     CURRENT TIME STEP:      77     ITERATIONS:       5

 -----------------------------------------------------------------------------------

   CUMULATIVE VOLUMES               L**3   RATES FOR THIS TIME STEP           L**3/T
   ------------------                      ------------------------

                                     IN                                         IN
                                     --                                         --
        PRECIPITATION =        1804962.84          PRECIPITATION =                  
           STREAMFLOW =                               STREAMFLOW =                  
     GW BOUNDARY FLOW =                         GW BOUNDARY FLOW =                  


                                    OUT                                        OUT
                                    ---                                        ---
   EVAPOTRANSPIRATION =        1319362.79     EVAPOTRANSPIRATION =                  
           STREAMFLOW =         748835.10             STREAMFLOW =          11520.53
     GW BOUNDARY FLOW =           2771.23       GW BOUNDARY FLOW =             35.61

   INFLOWS - OUTFLOWS =        -266006.27     INFLOWS - OUTFLOWS =         -11556.14
             --------                                   --------

 TOTAL STORAGE CHANGE =        -280024.15         STORAGE CHANGE =         -11571.35
       --------------                             --------------
         LAND SURFACE =         252566.26           LAND SURFACE =                  
            SOIL ZONE =        1050191.20              SOIL ZONE =            -33.01
     UNSATURATED ZONE =       -2174260.57       UNSATURATED ZONE =         -15929.84
       SATURATED ZONE =         591478.79         SATURATED ZONE =           4391.50

 OVERALL BUDGET ERROR =          14017.88           BUDGET ERROR =             15.22


  PERCENT DISCREPANCY =              0.67    PERCENT DISCREPANCY =              0.13



1
 SUMMARY VOLUMETRIC BUDGET FOR GSFLOW 
 DATE: 12 23 1990              CUMULATIVE TIME STEP:      23
 MODFLOW STRESS PERIOD      4     CURRENT TIME STEP:      84     ITERATIONS:       6

 -----------------------------------------------------------------------------------

   CUMULATIVE VOLUMES               L**3   RATES FOR THIS TIME STEP           L**3/T
   ------------------                      ------------------------

                                     IN                                         IN
                                     --                                         --
        PRECIPITATION =        2276236.55          PRECIPITATION =                  
           STREAMFLOW =                               STREAMFLOW =                  
     GW BOUNDARY FLOW =              0.08       GW BOUNDARY FLOW =              0.04


                                    OUT                                        OUT
                                    ---                                        ---
   EVAPOTRANSPIRATION =        1320420.31     EVAPOTRANSPIRATION =                  
           STREAMFLOW =         829676.83             STREAMFLOW =          11568.82
     GW BOUNDARY FLOW =           3020.26       GW BOUNDARY FLOW =             35.57

   INFLOWS - OUTFLOWS =         123119.23     INFLOWS - OUTFLOWS =         -11604.35
             --------                                   --------

 TOTAL STORAGE CHANGE =         109009.33         STORAGE CHANGE =         -11616.32
       --------------                             --------------
         LAND SURFACE =         722784.34           LAND SURFACE =                  
            SOIL ZONE =        1050308.12              SOIL ZONE =             46.51
     UNSATURATED ZONE =       -2283461.48       UNSATURATED ZONE =         -15355.80
       SATURATED ZONE =         619378.16         SATURATED ZONE =           3692.96

 OVERALL BUDGET ERROR =          14109.91           BUDGET ERROR =             11.98


  PERCENT DISCREPANCY =              0.62    PERCENT DISCREPANCY =              0.10



1
 SUMMARY VOLUMETRIC BUDGET FOR GSFLOW 
 DATE: 12 30 1990              CUMULATIVE TIME STEP:      30
 MODFLOW STRESS PERIOD      4     CURRENT TIME STEP:      91     ITERATIONS:       5

 -----------------------------------------------------------------------------------

   CUMULATIVE VOLUMES               L**3   RATES FOR THIS TIME STEP           L**3/T
   ------------------                      ------------------------

                                     IN                                         IN
                                     --                                         --
        PRECIPITATION =        2276236.55          PRECIPITATION =                  
           STREAMFLOW =                               STREAMFLOW =                  
     GW BOUNDARY FLOW =              0.77       GW BOUNDARY FLOW =              0.14


                                    OUT                                        OUT
                                    ---                                        ---
   EVAPOTRANSPIRATION =        1320987.81     EVAPOTRANSPIRATION =                  
           STREAMFLOW =         910927.39             STREAMFLOW =          11639.28
     GW BOUNDARY FLOW =           3269.37       GW BOUNDARY FLOW =             35.60

   INFLOWS - OUTFLOWS =          41052.75     INFLOWS - OUTFLOWS =         -11674.73
             --------                                   --------

 TOTAL STORAGE CHANGE =          26865.89         STORAGE CHANGE =         -11684.77
       --------------                             --------------
         LAND SURFACE =         722216.94           LAND SURFACE =                  
            SOIL ZONE =        1050835.87              SOIL ZONE =             94.59
     UNSATURATED ZONE =       -2388750.69       UNSATURATED ZONE =         -14807.39
       SATURATED ZONE =         642563.53         SATURATED ZONE =           3028.02

 OVERALL BUDGET ERROR =          14186.86           BUDGET ERROR =             10.04


  PERCENT DISCREPANCY =              0.63    PERCENT DISCREPANCY =              0.09



1
 SUMMARY VOLUMETRIC BUDGET FOR GSFLOW 
 DATE: 01 06 1991              CUMULATIVE TIME STEP:       6
 MODFLOW STRESS PERIOD      5     CURRENT TIME STEP:      98     ITERATIONS:       5

 -----------------------------------------------------------------------------------

   CUMULATIVE VOLUMES               L**3   RATES FOR THIS TIME STEP           L**3/T
   ------------------                      ------------------------

                                     IN                                         IN
                                     --                                         --
        PRECIPITATION =        2276236.55          PRECIPITATION =                  
           STREAMFLOW =                               STREAMFLOW =                  
     GW BOUNDARY FLOW =              2.09       GW BOUNDARY FLOW =              0.22


                                    OUT                                        OUT
                                    ---                                        ---
   EVAPOTRANSPIRATION =        1347986.29     EVAPOTRANSPIRATION =           3180.78
           STREAMFLOW =         992847.12             STREAMFLOW =          11743.66
     GW BOUNDARY FLOW =           3519.23       GW BOUNDARY FLOW =             35.75

   INFLOWS - OUTFLOWS =         -68113.99     INFLOWS - OUTFLOWS =         -14959.97
             --------                                   --------

 TOTAL STORAGE CHANGE =         -84852.77         STORAGE CHANGE =         -15092.35
       --------------                             --------------
         LAND SURFACE =         592099.77           LAND SURFACE =          -8106.31
            SOIL ZONE =        1152104.44              SOIL ZONE =           4885.87
     UNSATURATED ZONE =       -2490091.25       UNSATURATED ZONE =         -14245.05
       SATURATED ZONE =         661033.99         SATURATED ZONE =           2373.13

 OVERALL BUDGET ERROR =          16738.78           BUDGET ERROR =            132.39


  PERCENT DISCREPANCY =              0.71    PERCENT DISCREPANCY =              0.88



1
 SUMMARY VOLUMETRIC BUDGET FOR GSFLOW 
 DATE: 01 13 1991              CUMULATIVE TIME STEP:      13
 MODFLOW STRESS PERIOD      5     CURRENT TIME STEP:     105     ITERATIONS:       6

 -----------------------------------------------------------------------------------

   CUMULATIVE VOLUMES               L**3   RATES FOR THIS TIME STEP           L**3/T
   ------------------                      ------------------------

                                     IN                                         IN
                                     --                                         --
        PRECIPITATION =        2596386.94          PRECIPITATION =          10327.43
           STREAMFLOW =                               STREAMFLOW =                  
     GW BOUNDARY FLOW =              4.02       GW BOUNDARY FLOW =              0.31


                                    OUT                                        OUT
                                    ---                                        ---
   EVAPOTRANSPIRATION =        1413915.85     EVAPOTRANSPIRATION =          17874.58
           STREAMFLOW =        1075170.98             STREAMFLOW =          11698.36
     GW BOUNDARY FLOW =           3769.46       GW BOUNDARY FLOW =             35.73

   INFLOWS - OUTFLOWS =         103534.67     INFLOWS - OUTFLOWS =         -19280.92
             --------                                   --------

 TOTAL STORAGE CHANGE =          81846.90         STORAGE CHANGE =         -20505.19
       --------------                             --------------
         LAND SURFACE =         529885.07           LAND SURFACE =        -135264.71
            SOIL ZONE =        1465569.59              SOIL ZONE =         127476.63
     UNSATURATED ZONE =       -2587345.57       UNSATURATED ZONE =         -13680.75
       SATURATED ZONE =         673737.48         SATURATED ZONE =            963.63

 OVERALL BUDGET ERROR =          21687.77           BUDGET ERROR =           1224.27

  ***WARNING, FLUX RATES OFF > 3%

  PERCENT DISCREPANCY =              0.84    PERCENT DISCREPANCY =              4.05



1
 SUMMARY VOLUMETRIC BUDGET FOR GSFLOW 
 DATE: 01 20 1991              CUMULATIVE TIME STEP:      20
 MODFLOW STRESS PERIOD      5     CURRENT TIME STEP:     112     ITERATIONS:       5

 -----------------------------------------------------------------------------------

   CUMULATIVE VOLUMES               L**3   RATES FOR THIS TIME STEP           L**3/T
   ------------------                      ------------------------

                                     IN                                         IN
                                     --                                         --
        PRECIPITATION =        2596386.94          PRECIPITATION =                  
           STREAMFLOW =                               STREAMFLOW =                  
     GW BOUNDARY FLOW =              6.55       GW BOUNDARY FLOW =              0.40


                                    OUT                                        OUT
                                    ---                                        ---
   EVAPOTRANSPIRATION =        1488614.95     EVAPOTRANSPIRATION =           2353.10
           STREAMFLOW =        1158249.54             STREAMFLOW =          11899.42
     GW BOUNDARY FLOW =           4019.70       GW BOUNDARY FLOW =             35.75

   INFLOWS - OUTFLOWS =         -54490.70     INFLOWS - OUTFLOWS =         -14287.87
             --------                                   --------

 TOTAL STORAGE CHANGE =         -76946.61         STORAGE CHANGE =         -14287.03
       --------------                             --------------
         LAND SURFACE =         356897.60           LAND SURFACE =           -433.81
            SOIL ZONE =        1564405.93              SOIL ZONE =          -1838.94
     UNSATURATED ZONE =       -2680697.21       UNSATURATED ZONE =         -13119.63
       SATURATED ZONE =         682446.69         SATURATED ZONE =           1105.34

 OVERALL BUDGET ERROR =          22455.91           BUDGET ERROR =             -0.85


  PERCENT DISCREPANCY =              0.84    PERCENT DISCREPANCY =             -0.01



1
 SUMMARY VOLUMETRIC BUDGET FOR GSFLOW 
 DATE: 01 27 1991              CUMULATIVE TIME STEP:      27
 MODFLOW STRESS PERIOD      5     CURRENT TIME STEP:     119     ITERATIONS:       5

 -----------------------------------------------------------------------------------

   CUMULATIVE VOLUMES               L**3   RATES FOR THIS TIME STEP           L**3/T
   ------------------                      ------------------------

                                     IN                                         IN
                                     --                                         --
        PRECIPITATION =        2596386.94          PRECIPITATION =                  
           STREAMFLOW =                               STREAMFLOW =                  
     GW BOUNDARY FLOW =              9.65       GW BOUNDARY FLOW =              0.48


                                    OUT                                        OUT
                                    ---                                        ---
   EVAPOTRANSPIRATION =        1513277.12     EVAPOTRANSPIRATION =           1658.22
           STREAMFLOW =        1241512.64             STREAMFLOW =          11920.09
     GW BOUNDARY FLOW =           4269.91       GW BOUNDARY FLOW =             35.74

   INFLOWS - OUTFLOWS =        -162663.09     INFLOWS - OUTFLOWS =         -13613.57
             --------                                   --------

 TOTAL STORAGE CHANGE =        -185336.28         STORAGE CHANGE =         -13625.76
       --------------                             --------------
         LAND SURFACE =         323033.09           LAND SURFACE =           -547.84
            SOIL ZONE =        1574573.25              SOIL ZONE =          -1024.25
     UNSATURATED ZONE =       -2770600.43       UNSATURATED ZONE =         -12622.81
       SATURATED ZONE =         687657.37         SATURATED ZONE =            569.13

 OVERALL BUDGET ERROR =          22673.19           BUDGET ERROR =             12.19


  PERCENT DISCREPANCY =              0.82    PERCENT DISCREPANCY =              0.09



1
 SUMMARY VOLUMETRIC BUDGET FOR GSFLOW 
 DATE: 02 03 1991              CUMULATIVE TIME STEP:       3
 MODFLOW STRESS PERIOD      6     CURRENT TIME STEP:     126     ITERATIONS:       6

 -----------------------------------------------------------------------------------

   CUMULATIVE VOLUMES               L**3   RATES FOR THIS TIME STEP           L**3/T
   ------------------                      ------------------------

                                     IN                                         IN
                                     --                                         --
        PRECIPITATION =        3228422.31          PRECIPITATION =          30459.53
           STREAMFLOW =                               STREAMFLOW =                  
     GW BOUNDARY FLOW =             13.31       GW BOUNDARY FLOW =              0.55


                                    OUT                                        OUT
                                    ---                                        ---
   EVAPOTRANSPIRATION =        1616444.36     EVAPOTRANSPIRATION =          20932.53
           STREAMFLOW =        1326365.04             STREAMFLOW =          12227.77
     GW BOUNDARY FLOW =           4520.08       GW BOUNDARY FLOW =             35.74

   INFLOWS - OUTFLOWS =         281106.13     INFLOWS - OUTFLOWS =          -2735.95
             --------                                   --------

 TOTAL STORAGE CHANGE =         251455.25         STORAGE CHANGE =          -3016.38
       --------------                             --------------
         LAND SURFACE =         157683.43           LAND SURFACE =         -26376.35
            SOIL ZONE =        2263053.74              SOIL ZONE =          35671.34
     UNSATURATED ZONE =       -2857246.04       UNSATURATED ZONE =         -12213.12
       SATURATED ZONE =         687963.61         SATURATED ZONE =            -98.25

 OVERALL BUDGET ERROR =          29650.87           BUDGET ERROR =            280.42


  PERCENT DISCREPANCY =              0.92    PERCENT DISCREPANCY =              0.84



1
 SUMMARY VOLUMETRIC BUDGET FOR GSFLOW 
 DATE: 02 10 1991              CUMULATIVE TIME STEP:      10
 MODFLOW STRESS PERIOD      6     CURRENT TIME STEP:     133     ITERATIONS:       5

 -----------------------------------------------------------------------------------

   CUMULATIVE VOLUMES               L**3   RATES FOR THIS TIME STEP           L**3/T
   ------------------                      ------------------------

                                     IN                                         IN
                                     --                                         --
        PRECIPITATION =        3510173.01          PRECIPITATION =                  
           STREAMFLOW =                               STREAMFLOW =                  
     GW BOUNDARY FLOW =             17.48       GW BOUNDARY FLOW =              0.63


                                    OUT                                        OUT
                                    ---                                        ---
   EVAPOTRANSPIRATION =        1783081.33     EVAPOTRANSPIRATION =          25248.35
           STREAMFLOW =        1412521.23             STREAMFLOW =          12160.14
     GW BOUNDARY FLOW =           4770.17       GW BOUNDARY FLOW =             35.72

   INFLOWS - OUTFLOWS =         309817.76     INFLOWS - OUTFLOWS =         -37443.58
             --------                                   --------

 TOTAL STORAGE CHANGE =         277582.12         STORAGE CHANGE =         -37368.48
       --------------                             --------------
         LAND SURFACE =          75877.11           LAND SURFACE =          -8469.89
            SOIL ZONE =        2456146.69              SOIL ZONE =         -16612.14
     UNSATURATED ZONE =       -2940361.89       UNSATURATED ZONE =         -11703.64
       SATURATED ZONE =         685919.62         SATURATED ZONE =           -582.83

 OVERALL BUDGET ERROR =          32235.63           BUDGET ERROR =            -75.10


  PERCENT DISCREPANCY =              0.92    PERCENT DISCREPANCY =             -0.20



1
 SUMMARY VOLUMETRIC BUDGET FOR GSFLOW 
 DATE: 02 17 1991              CUMULATIVE TIME STEP:      17
 MODFLOW STRESS PERIOD      6     CURRENT TIME STEP:     140     ITERATIONS:       5

 -----------------------------------------------------------------------------------

   CUMULATIVE VOLUMES               L**3   RATES FOR THIS TIME STEP           L**3/T
   ------------------                      ------------------------

                                     IN                                         IN
                                     --                                         --
        PRECIPITATION =        3510173.01          PRECIPITATION =                  
           STREAMFLOW =                               STREAMFLOW =                  
     GW BOUNDARY FLOW =             22.16       GW BOUNDARY FLOW =              0.70


                                    OUT                                        OUT
                                    ---                                        ---
   EVAPOTRANSPIRATION =        2023050.31     EVAPOTRANSPIRATION =          23529.54
           STREAMFLOW =        1497236.82             STREAMFLOW =          12103.49
     GW BOUNDARY FLOW =           5020.10       GW BOUNDARY FLOW =             35.68

   INFLOWS - OUTFLOWS =         -15112.07     INFLOWS - OUTFLOWS =         -35668.01
             --------                                   --------

 TOTAL STORAGE CHANGE =         -46581.82         STORAGE CHANGE =         -35592.24
       --------------                             --------------
         LAND SURFACE =          17890.99           LAND SURFACE =          -1143.67
            SOIL ZONE =        2275984.38              SOIL ZONE =         -22286.36
     UNSATURATED ZONE =       -3020024.94       UNSATURATED ZONE =         -11074.29
       SATURATED ZONE =         679567.06         SATURATED ZONE =          -1087.94

 OVERALL BUDGET ERROR =          31469.76           BUDGET ERROR =            -75.77


  PERCENT DISCREPANCY =              0.89    PERCENT DISCREPANCY =             -0.21



1
 SUMMARY VOLUMETRIC BUDGET FOR GSFLOW 
 DATE: 02 24 1991              CUMULATIVE TIME STEP:      24
 MODFLOW STRESS PERIOD      6     CURRENT TIME STEP:     147     ITERATIONS:       5

 -----------------------------------------------------------------------------------

   CUMULATIVE VOLUMES               L**3   RATES FOR THIS TIME STEP           L**3/T
   ------------------                      ------------------------

                                     IN                                         IN
                                     --                                         --
        PRECIPITATION =        3510173.01          PRECIPITATION =                  
           STREAMFLOW =                               STREAMFLOW =                  
     GW BOUNDARY FLOW =             27.30       GW BOUNDARY FLOW =              0.76


                                    OUT                                        OUT
                                    ---                                        ---
   EVAPOTRANSPIRATION =        2235441.85     EVAPOTRANSPIRATION =          21574.95
           STREAMFLOW =        1581551.75             STREAMFLOW =          12035.44
     GW BOUNDARY FLOW =           5269.15       GW BOUNDARY FLOW =             35.51

   INFLOWS - OUTFLOWS =        -312062.44     INFLOWS - OUTFLOWS =         -33645.13
             --------                                   --------

 TOTAL STORAGE CHANGE =        -342835.60         STORAGE CHANGE =         -33572.69
       --------------                             --------------
         LAND SURFACE =           7435.72           LAND SURFACE =           -217.69
            SOIL ZONE =        2075827.85              SOIL ZONE =         -21099.55
     UNSATURATED ZONE =       -3095897.08       UNSATURATED ZONE =         -10668.87
       SATURATED ZONE =         669797.13         SATURATED ZONE =          -1586.59

 OVERALL BUDGET ERROR =          30773.17           BUDGET ERROR =            -72.44


  PERCENT DISCREPANCY =              0.80    PERCENT DISCREPANCY =             -0.22



1
 SUMMARY VOLUMETRIC BUDGET FOR GSFLOW 
 DATE: 03 03 1991              CUMULATIVE TIME STEP:       3
 MODFLOW STRESS PERIOD      7     CURRENT TIME STEP:     154     ITERATIONS:       5

 -----------------------------------------------------------------------------------

   CUMULATIVE VOLUMES               L**3   RATES FOR THIS TIME STEP           L**3/T
   ------------------                      ------------------------

                                     IN                                         IN
                                     --                                         --
        PRECIPITATION =        6220189.63          PRECIPITATION =        1243187.24
           STREAMFLOW =                               STREAMFLOW =                  
     GW BOUNDARY FLOW =             32.90       GW BOUNDARY FLOW =              0.83


                                    OUT                                        OUT
                                    ---                                        ---
   EVAPOTRANSPIRATION =        2387422.33     EVAPOTRANSPIRATION =           8435.44
           STREAMFLOW =        1665556.42             STREAMFLOW =          12341.22
     GW BOUNDARY FLOW =           5516.93       GW BOUNDARY FLOW =             35.34

   INFLOWS - OUTFLOWS =        2161726.85     INFLOWS - OUTFLOWS =        1222376.07
             --------                                   --------

 TOTAL STORAGE CHANGE =        2123907.84         STORAGE CHANGE =        1214895.99
       --------------                             --------------
         LAND SURFACE =        2352761.88           LAND SURFACE =         894135.84
            SOIL ZONE =        2284642.23              SOIL ZONE =         333399.87
     UNSATURATED ZONE =       -3168787.41       UNSATURATED ZONE =         -10258.74
       SATURATED ZONE =         655290.28         SATURATED ZONE =          -2381.00

 OVERALL BUDGET ERROR =          37819.01           BUDGET ERROR =           7480.09


  PERCENT DISCREPANCY =              0.61    PERCENT DISCREPANCY =              0.60



1
 SUMMARY VOLUMETRIC BUDGET FOR GSFLOW 
 DATE: 03 10 1991              CUMULATIVE TIME STEP:      10
 MODFLOW STRESS PERIOD      7     CURRENT TIME STEP:     161     ITERATIONS:       5

 -----------------------------------------------------------------------------------

   CUMULATIVE VOLUMES               L**3   RATES FOR THIS TIME STEP           L**3/T
   ------------------                      ------------------------

                                     IN                                         IN
                                     --                                         --
        PRECIPITATION =        8746030.42          PRECIPITATION =          32888.55
           STREAMFLOW =                               STREAMFLOW =                  
     GW BOUNDARY FLOW =             38.93       GW BOUNDARY FLOW =              0.89


                                    OUT                                        OUT
                                    ---                                        ---
   EVAPOTRANSPIRATION =        2460716.42     EVAPOTRANSPIRATION =           8863.44
           STREAMFLOW =        1853520.78             STREAMFLOW =          21902.66
     GW BOUNDARY FLOW =           5765.90       GW BOUNDARY FLOW =             35.44

   INFLOWS - OUTFLOWS =        4426066.24     INFLOWS - OUTFLOWS =           2087.90
             --------                                   --------

 TOTAL STORAGE CHANGE =        4355774.22         STORAGE CHANGE =            989.70
       --------------                             --------------
         LAND SURFACE =        2523463.28           LAND SURFACE =         -14137.08
            SOIL ZONE =        4371789.41              SOIL ZONE =          18404.07
     UNSATURATED ZONE =       -3189539.93       UNSATURATED ZONE =          -1944.54
       SATURATED ZONE =         650060.41         SATURATED ZONE =          -1332.78

 OVERALL BUDGET ERROR =          70292.02           BUDGET ERROR =           1098.19

  ***WARNING, FLUX RATES OFF > 3%

  PERCENT DISCREPANCY =              0.81    PERCENT DISCREPANCY =              3.40



1
 SUMMARY VOLUMETRIC BUDGET FOR GSFLOW 
 DATE: 03 17 1991              CUMULATIVE TIME STEP:      17
 MODFLOW STRESS PERIOD      7     CURRENT TIME STEP:     168     ITERATIONS:       5

 -----------------------------------------------------------------------------------

   CUMULATIVE VOLUMES               L**3   RATES FOR THIS TIME STEP           L**3/T
   ------------------                      ------------------------

                                     IN                                         IN
                                     --                                         --
        PRECIPITATION =        9897129.71          PRECIPITATION =         157865.04
           STREAMFLOW =                               STREAMFLOW =                  
     GW BOUNDARY FLOW =             45.37       GW BOUNDARY FLOW =              0.95


                                    OUT                                        OUT
                                    ---                                        ---
   EVAPOTRANSPIRATION =        2488554.83     EVAPOTRANSPIRATION =           8079.61
           STREAMFLOW =        1994827.04             STREAMFLOW =          19552.02
     GW BOUNDARY FLOW =           6013.16       GW BOUNDARY FLOW =             35.25

   INFLOWS - OUTFLOWS =        5407780.05     INFLOWS - OUTFLOWS =         130199.12
             --------                                   --------

 TOTAL STORAGE CHANGE =        5336015.17         STORAGE CHANGE =         130017.90
       --------------                             --------------
         LAND SURFACE =        3672302.31           LAND SURFACE =         157496.61
            SOIL ZONE =        4232989.92              SOIL ZONE =         -22646.16
     UNSATURATED ZONE =       -3206881.42       UNSATURATED ZONE =          -2770.09
       SATURATED ZONE =         637603.10         SATURATED ZONE =          -2062.49

 OVERALL BUDGET ERROR =          71764.88           BUDGET ERROR =            181.21


  PERCENT DISCREPANCY =              0.73    PERCENT DISCREPANCY =              0.11



1
 SUMMARY VOLUMETRIC BUDGET FOR GSFLOW 
 DATE: 03 24 1991              CUMULATIVE TIME STEP:      24
 MODFLOW STRESS PERIOD      7     CURRENT TIME STEP:     175     ITERATIONS:       5

 -----------------------------------------------------------------------------------

   CUMULATIVE VOLUMES               L**3   RATES FOR THIS TIME STEP           L**3/T
   ------------------                      ------------------------

                                     IN                                         IN
                                     --                                         --
        PRECIPITATION =        1.1673D+07          PRECIPITATION =        1230031.83
           STREAMFLOW =                               STREAMFLOW =                  
     GW BOUNDARY FLOW =             52.22       GW BOUNDARY FLOW =              1.00


                                    OUT                                        OUT
                                    ---                                        ---
   EVAPOTRANSPIRATION =        2527380.16     EVAPOTRANSPIRATION =           4663.34
           STREAMFLOW =        2127718.03             STREAMFLOW =          18690.93
     GW BOUNDARY FLOW =           6259.22       GW BOUNDARY FLOW =             35.08

   INFLOWS - OUTFLOWS =        7011806.32     INFLOWS - OUTFLOWS =        1206643.49
             --------                                   --------

 TOTAL STORAGE CHANGE =        6938109.85         STORAGE CHANGE =        1206471.95
       --------------                             --------------
         LAND SURFACE =        5426161.22           LAND SURFACE =        1230031.83
            SOIL ZONE =        4120377.40              SOIL ZONE =         -17542.54
     UNSATURATED ZONE =       -3229899.85       UNSATURATED ZONE =          -3529.59
       SATURATED ZONE =         621469.60         SATURATED ZONE =          -2487.77

 OVERALL BUDGET ERROR =          73696.47           BUDGET ERROR =            171.53


  PERCENT DISCREPANCY =              0.63    PERCENT DISCREPANCY =              0.01



1
 SUMMARY VOLUMETRIC BUDGET FOR GSFLOW 
 DATE: 03 31 1991              CUMULATIVE TIME STEP:      31
 MODFLOW STRESS PERIOD      7     CURRENT TIME STEP:     182     ITERATIONS:       6

 -----------------------------------------------------------------------------------

   CUMULATIVE VOLUMES               L**3   RATES FOR THIS TIME STEP           L**3/T
   ------------------                      ------------------------

                                     IN                                         IN
                                     --                                         --
        PRECIPITATION =        1.2495D+07          PRECIPITATION =                  
           STREAMFLOW =                               STREAMFLOW =                  
     GW BOUNDARY FLOW =             59.46       GW BOUNDARY FLOW =              1.06


                                    OUT                                        OUT
                                    ---                                        ---
   EVAPOTRANSPIRATION =        2649138.45     EVAPOTRANSPIRATION =          48053.54
           STREAMFLOW =        2260660.55             STREAMFLOW =          21943.22
     GW BOUNDARY FLOW =           6504.29       GW BOUNDARY FLOW =             35.02

   INFLOWS - OUTFLOWS =        7579081.45     INFLOWS - OUTFLOWS =         -70030.72
             --------                                   --------

 TOTAL STORAGE CHANGE =        7499752.82         STORAGE CHANGE =         -72997.50
       --------------                             --------------
         LAND SURFACE =        5977198.26           LAND SURFACE =        -148137.48
            SOIL ZONE =        4173818.90              SOIL ZONE =          80269.69
     UNSATURATED ZONE =       -3254472.06       UNSATURATED ZONE =          -2527.78
       SATURATED ZONE =         603206.03         SATURATED ZONE =          -2601.95

 OVERALL BUDGET ERROR =          79328.63           BUDGET ERROR =           2966.78

  ***WARNING, FLUX RATES OFF > 3%

  PERCENT DISCREPANCY =              0.64    PERCENT DISCREPANCY =              4.15



1
 SUMMARY VOLUMETRIC BUDGET FOR GSFLOW 
 DATE: 04 07 1991              CUMULATIVE TIME STEP:       7
 MODFLOW STRESS PERIOD      8     CURRENT TIME STEP:     189     ITERATIONS:       7

 -----------------------------------------------------------------------------------

   CUMULATIVE VOLUMES               L**3   RATES FOR THIS TIME STEP           L**3/T
   ------------------                      ------------------------

                                     IN                                         IN
                                     --                                         --
        PRECIPITATION =        1.3018D+07          PRECIPITATION =                  
           STREAMFLOW =                               STREAMFLOW =                  
     GW BOUNDARY FLOW =             67.07       GW BOUNDARY FLOW =              1.11


                                    OUT                                        OUT
                                    ---                                        ---
   EVAPOTRANSPIRATION =        2957230.89     EVAPOTRANSPIRATION =          15960.30
           STREAMFLOW =        2573659.58             STREAMFLOW =          62352.28
     GW BOUNDARY FLOW =           6751.62       GW BOUNDARY FLOW =             35.59

   INFLOWS - OUTFLOWS =        7480161.72     INFLOWS - OUTFLOWS =         -78347.06
             --------                                   --------

 TOTAL STORAGE CHANGE =        7363560.62         STORAGE CHANGE =         -81074.50
       --------------                             --------------
         LAND SURFACE =        4335933.24           LAND SURFACE =         -73164.41
            SOIL ZONE =        5671925.40              SOIL ZONE =         -14899.51
     UNSATURATED ZONE =       -3232083.04       UNSATURATED ZONE =           9049.11
       SATURATED ZONE =         587783.06         SATURATED ZONE =          -2059.73

 OVERALL BUDGET ERROR =         116601.10           BUDGET ERROR =           2727.44

  ***WARNING, FLUX RATES OFF > 3%

  PERCENT DISCREPANCY =              0.90    PERCENT DISCREPANCY =              3.42



1
 SUMMARY VOLUMETRIC BUDGET FOR GSFLOW 
 DATE: 04 14 1991              CUMULATIVE TIME STEP:      14
 MODFLOW STRESS PERIOD      8     CURRENT TIME STEP:     196     ITERATIONS:       7

 -----------------------------------------------------------------------------------

   CUMULATIVE VOLUMES               L**3   RATES FOR THIS TIME STEP           L**3/T
   ------------------                      ------------------------

                                     IN                                         IN
                                     --                                         --
        PRECIPITATION =        1.3018D+07          PRECIPITATION =                  
           STREAMFLOW =                               STREAMFLOW =                  
     GW BOUNDARY FLOW =             74.99       GW BOUNDARY FLOW =              1.15


                                    OUT                                        OUT
                                    ---                                        ---
   EVAPOTRANSPIRATION =        3141340.61     EVAPOTRANSPIRATION =          42037.35
           STREAMFLOW =        3054080.15             STREAMFLOW =          73052.63
     GW BOUNDARY FLOW =           7000.77       GW BOUNDARY FLOW =             35.60

   INFLOWS - OUTFLOWS =        6815390.20     INFLOWS - OUTFLOWS =        -115124.43
             --------                                   --------

 TOTAL STORAGE CHANGE =        6675799.92         STORAGE CHANGE =        -119926.46
       --------------                             --------------
         LAND SURFACE =        3672284.11           LAND SURFACE =        -192335.10
            SOIL ZONE =        5601647.31              SOIL ZONE =          66186.16
     UNSATURATED ZONE =       -3172344.84       UNSATURATED ZONE =           7994.89
       SATURATED ZONE =         574211.07         SATURATED ZONE =          -1772.46

 OVERALL BUDGET ERROR =         139590.28           BUDGET ERROR =           4802.03

  ***WARNING, FLUX RATES OFF > 3%

  PERCENT DISCREPANCY =              1.08    PERCENT DISCREPANCY =              4.09



1
 SUMMARY VOLUMETRIC BUDGET FOR GSFLOW 
 DATE: 04 21 1991              CUMULATIVE TIME STEP:      21
 MODFLOW STRESS PERIOD      8     CURRENT TIME STEP:     203     ITERATIONS:       9

 -----------------------------------------------------------------------------------

   CUMULATIVE VOLUMES               L**3   RATES FOR THIS TIME STEP           L**3/T
   ------------------                      ------------------------

                                     IN                                         IN
                                     --                                         --
        PRECIPITATION =        1.3034D+07          PRECIPITATION =                  
           STREAMFLOW =                               STREAMFLOW =                  
     GW BOUNDARY FLOW =             83.22       GW BOUNDARY FLOW =              1.19


                                    OUT                                        OUT
                                    ---                                        ---
   EVAPOTRANSPIRATION =        3394973.69     EVAPOTRANSPIRATION =          46894.79
           STREAMFLOW =        3605775.16             STREAMFLOW =          90066.77
     GW BOUNDARY FLOW =           7250.10       GW BOUNDARY FLOW =             35.73

   INFLOWS - OUTFLOWS =        6026146.36     INFLOWS - OUTFLOWS =        -136996.09
             --------                                   --------

 TOTAL STORAGE CHANGE =        5855881.71         STORAGE CHANGE =        -142091.49
       --------------                             --------------
         LAND SURFACE =        2500870.94           LAND SURFACE =        -216968.59
            SOIL ZONE =        5903944.35              SOIL ZONE =          66086.78
     UNSATURATED ZONE =       -3111258.73       UNSATURATED ZONE =          10252.78
       SATURATED ZONE =         562322.52         SATURATED ZONE =          -1462.50

 OVERALL BUDGET ERROR =         170264.65           BUDGET ERROR =           5095.40

  ***WARNING, FLUX RATES OFF > 3%

  PERCENT DISCREPANCY =              1.31    PERCENT DISCREPANCY =              3.65



1
 SUMMARY VOLUMETRIC BUDGET FOR GSFLOW 
 DATE: 04 28 1991              CUMULATIVE TIME STEP:      28
 MODFLOW STRESS PERIOD      8     CURRENT TIME STEP:     210     ITERATIONS:       7

 -----------------------------------------------------------------------------------

   CUMULATIVE VOLUMES               L**3   RATES FOR THIS TIME STEP           L**3/T
   ------------------                      ------------------------

                                     IN                                         IN
                                     --                                         --
        PRECIPITATION =        1.3303D+07          PRECIPITATION =                  
           STREAMFLOW =                               STREAMFLOW =                  
     GW BOUNDARY FLOW =             91.72       GW BOUNDARY FLOW =              1.23


                                    OUT                                        OUT
                                    ---                                        ---
   EVAPOTRANSPIRATION =        3663391.86     EVAPOTRANSPIRATION =          58231.63
           STREAMFLOW =        4251194.51             STREAMFLOW =          91224.09
     GW BOUNDARY FLOW =           7499.98       GW BOUNDARY FLOW =             35.64

   INFLOWS - OUTFLOWS =        5381435.88     INFLOWS - OUTFLOWS =        -149490.13
             --------                                   --------

 TOTAL STORAGE CHANGE =        5179313.23         STORAGE CHANGE =        -153502.93
       --------------                             --------------
         LAND SURFACE =        1748447.64           LAND SURFACE =        -137153.52
            SOIL ZONE =        5914916.92              SOIL ZONE =         -25368.81
     UNSATURATED ZONE =       -3037987.68       UNSATURATED ZONE =           9928.82
       SATURATED ZONE =         553933.34         SATURATED ZONE =           -909.48

 OVERALL BUDGET ERROR =         202122.64           BUDGET ERROR =           4012.81


  PERCENT DISCREPANCY =              1.53    PERCENT DISCREPANCY =              2.65



1
 SUMMARY VOLUMETRIC BUDGET FOR GSFLOW 
 DATE: 05 05 1991              CUMULATIVE TIME STEP:       5
 MODFLOW STRESS PERIOD      9     CURRENT TIME STEP:     217     ITERATIONS:     144

 -----------------------------------------------------------------------------------

   CUMULATIVE VOLUMES               L**3   RATES FOR THIS TIME STEP           L**3/T
   ------------------                      ------------------------

                                     IN                                         IN
                                     --                                         --
        PRECIPITATION =        1.3510D+07          PRECIPITATION =                  
           STREAMFLOW =                               STREAMFLOW =                  
     GW BOUNDARY FLOW =            100.48       GW BOUNDARY FLOW =              1.27


                                    OUT                                        OUT
                                    ---                                        ---
   EVAPOTRANSPIRATION =        4040915.18     EVAPOTRANSPIRATION =          90410.15
           STREAMFLOW =        4836757.12             STREAMFLOW =          84148.50
     GW BOUNDARY FLOW =           7748.33       GW BOUNDARY FLOW =             35.42

   INFLOWS - OUTFLOWS =        4624387.98     INFLOWS - OUTFLOWS =        -174592.80
             --------                                   --------

 TOTAL STORAGE CHANGE =        4397829.20         STORAGE CHANGE =        -177919.23
       --------------                             --------------
         LAND SURFACE =        1036420.07           LAND SURFACE =        -150153.36
            SOIL ZONE =        5790706.19              SOIL ZONE =         -35540.89
     UNSATURATED ZONE =       -2975436.59       UNSATURATED ZONE =           7758.81
       SATURATED ZONE =         546136.08         SATURATED ZONE =             16.14

 OVERALL BUDGET ERROR =         226558.78           BUDGET ERROR =           3326.43


  PERCENT DISCREPANCY =              1.69    PERCENT DISCREPANCY =              1.89



1
 SUMMARY VOLUMETRIC BUDGET FOR GSFLOW 
 DATE: 05 12 1991              CUMULATIVE TIME STEP:      12
 MODFLOW STRESS PERIOD      9     CURRENT TIME STEP:     224     ITERATIONS:       7

 -----------------------------------------------------------------------------------

   CUMULATIVE VOLUMES               L**3   RATES FOR THIS TIME STEP           L**3/T
   ------------------                      ------------------------

                                     IN                                         IN
                                     --                                         --
        PRECIPITATION =        1.4029D+07          PRECIPITATION =                  
           STREAMFLOW =                               STREAMFLOW =                  
     GW BOUNDARY FLOW =            109.51       GW BOUNDARY FLOW =              1.31


                                    OUT                                        OUT
                                    ---                                        ---
   EVAPOTRANSPIRATION =        4436520.88     EVAPOTRANSPIRATION =          68949.20
           STREAMFLOW =        5382850.75             STREAMFLOW =          81302.90
     GW BOUNDARY FLOW =           7994.96       GW BOUNDARY FLOW =             35.19

   INFLOWS - OUTFLOWS =        4201965.07     INFLOWS - OUTFLOWS =        -150285.98
             --------                                   --------

 TOTAL STORAGE CHANGE =        3951100.24         STORAGE CHANGE =        -153352.06
       --------------                             --------------
         LAND SURFACE =         579124.41           LAND SURFACE =        -205427.93
            SOIL ZONE =        5752011.70              SOIL ZONE =          45247.40
     UNSATURATED ZONE =       -2917011.61       UNSATURATED ZONE =           8299.40
       SATURATED ZONE =         536971.88         SATURATED ZONE =          -1470.99

 OVERALL BUDGET ERROR =         250864.83           BUDGET ERROR =           3066.08


  PERCENT DISCREPANCY =              1.80    PERCENT DISCREPANCY =              2.02



1
 SUMMARY VOLUMETRIC BUDGET FOR GSFLOW 
 DATE: 05 19 1991              CUMULATIVE TIME STEP:      19
 MODFLOW STRESS PERIOD      9     CURRENT TIME STEP:     231     ITERATIONS:       7

 -----------------------------------------------------------------------------------

   CUMULATIVE VOLUMES               L**3   RATES FOR THIS TIME STEP           L**3/T
   ------------------                      ------------------------

                                     IN                                         IN
                                     --                                         --
        PRECIPITATION =        1.4365D+07          PRECIPITATION =                  
           STREAMFLOW =                               STREAMFLOW =                  
     GW BOUNDARY FLOW =            118.81       GW BOUNDARY FLOW =              1.35


                                    OUT                                        OUT
                                    ---                                        ---
   EVAPOTRANSPIRATION =        4875178.69     EVAPOTRANSPIRATION =          20444.02
           STREAMFLOW =        5858183.10             STREAMFLOW =          60089.21
     GW BOUNDARY FLOW =           8239.42       GW BOUNDARY FLOW =             34.74

   INFLOWS - OUTFLOWS =        3623895.91     INFLOWS - OUTFLOWS =         -80566.62
             --------                                   --------

 TOTAL STORAGE CHANGE =        3355544.80         STORAGE CHANGE =         -82391.87
       --------------                             --------------
         LAND SURFACE =         228252.15           LAND SURFACE =         -22354.64
            SOIL ZONE =        5472316.59              SOIL ZONE =         -63745.33
     UNSATURATED ZONE =       -2870989.21       UNSATURATED ZONE =           5283.00
       SATURATED ZONE =         525960.96         SATURATED ZONE =          -1574.97

 OVERALL BUDGET ERROR =         268351.11           BUDGET ERROR =           1825.25


  PERCENT DISCREPANCY =              1.89    PERCENT DISCREPANCY =              2.24



1
 SUMMARY VOLUMETRIC BUDGET FOR GSFLOW 
 DATE: 05 26 1991              CUMULATIVE TIME STEP:      26
 MODFLOW STRESS PERIOD      9     CURRENT TIME STEP:     238     ITERATIONS:       6

 -----------------------------------------------------------------------------------

   CUMULATIVE VOLUMES               L**3   RATES FOR THIS TIME STEP           L**3/T
   ------------------                      ------------------------

                                     IN                                         IN
                                     --                                         --
        PRECIPITATION =        1.4426D+07          PRECIPITATION =                  
           STREAMFLOW =                               STREAMFLOW =                  
     GW BOUNDARY FLOW =            128.39       GW BOUNDARY FLOW =              1.39


                                    OUT                                        OUT
                                    ---                                        ---
   EVAPOTRANSPIRATION =        5559801.14     EVAPOTRANSPIRATION =          76899.58
           STREAMFLOW =        6200008.41             STREAMFLOW =          36216.99
     GW BOUNDARY FLOW =           8480.71       GW BOUNDARY FLOW =             34.19

   INFLOWS - OUTFLOWS =        2658335.74     INFLOWS - OUTFLOWS =        -113149.38
             --------                                   --------

 TOTAL STORAGE CHANGE =        2381550.39         STORAGE CHANGE =        -113832.27
       --------------                             --------------
         LAND SURFACE =          55233.90           LAND SURFACE =          -8157.37
            SOIL ZONE =        4665999.35              SOIL ZONE =        -103082.34
     UNSATURATED ZONE =       -2852716.02       UNSATURATED ZONE =           -425.84
       SATURATED ZONE =         513028.40         SATURATED ZONE =          -2166.78

 OVERALL BUDGET ERROR =         276785.35           BUDGET ERROR =            682.89


  PERCENT DISCREPANCY =              1.94    PERCENT DISCREPANCY =              0.60



1
 SUMMARY VOLUMETRIC BUDGET FOR GSFLOW 
 DATE: 06 02 1991              CUMULATIVE TIME STEP:       2
 MODFLOW STRESS PERIOD     10     CURRENT TIME STEP:     245     ITERATIONS:       6

 -----------------------------------------------------------------------------------

   CUMULATIVE VOLUMES               L**3   RATES FOR THIS TIME STEP           L**3/T
   ------------------                      ------------------------

                                     IN                                         IN
                                     --                                         --
        PRECIPITATION =        1.4671D+07          PRECIPITATION =                  
           STREAMFLOW =                               STREAMFLOW =                  
     GW BOUNDARY FLOW =            138.27       GW BOUNDARY FLOW =              1.43


                                    OUT                                        OUT
                                    ---                                        ---
   EVAPOTRANSPIRATION =        6148973.25     EVAPOTRANSPIRATION =         127565.28
           STREAMFLOW =        6421016.15             STREAMFLOW =          27771.12
     GW BOUNDARY FLOW =           8718.77       GW BOUNDARY FLOW =             33.87

   INFLOWS - OUTFLOWS =        2092404.91     INFLOWS - OUTFLOWS =        -155368.84
             --------                                   --------

 TOTAL STORAGE CHANGE =        1812008.82         STORAGE CHANGE =        -154684.30
       --------------                             --------------
         LAND SURFACE =          19760.70           LAND SURFACE =          -4094.13
            SOIL ZONE =        4164432.27              SOIL ZONE =        -144654.10
     UNSATURATED ZONE =       -2867111.86       UNSATURATED ZONE =          -2999.01
       SATURATED ZONE =         494922.51         SATURATED ZONE =          -2937.12

 OVERALL BUDGET ERROR =         280396.09           BUDGET ERROR =           -684.54


  PERCENT DISCREPANCY =              1.93    PERCENT DISCREPANCY =             -0.44



1
 SUMMARY VOLUMETRIC BUDGET FOR GSFLOW 
 DATE: 06 09 1991              CUMULATIVE TIME STEP:       9
 MODFLOW STRESS PERIOD     10     CURRENT TIME STEP:     252     ITERATIONS:       6

 -----------------------------------------------------------------------------------

   CUMULATIVE VOLUMES               L**3   RATES FOR THIS TIME STEP           L**3/T
   ------------------                      ------------------------

                                     IN                                         IN
                                     --                                         --
        PRECIPITATION =        1.4671D+07          PRECIPITATION =                  
           STREAMFLOW =                               STREAMFLOW =                  
     GW BOUNDARY FLOW =            148.45       GW BOUNDARY FLOW =              1.47


                                    OUT                                        OUT
                                    ---                                        ---
   EVAPOTRANSPIRATION =        6937451.33     EVAPOTRANSPIRATION =         172470.27
           STREAMFLOW =        6577656.96             STREAMFLOW =          19027.10
     GW BOUNDARY FLOW =           8954.38       GW BOUNDARY FLOW =             33.52

   INFLOWS - OUTFLOWS =        1147060.58     INFLOWS - OUTFLOWS =        -191529.42
             --------                                   --------

 TOTAL STORAGE CHANGE =         872161.29         STORAGE CHANGE =        -190072.59
       --------------                             --------------
         LAND SURFACE =           3957.39           LAND SURFACE =          -2186.13
            SOIL ZONE =        3298878.95              SOIL ZONE =        -178001.55
     UNSATURATED ZONE =       -2901398.13       UNSATURATED ZONE =          -5969.81
       SATURATED ZONE =         470717.43         SATURATED ZONE =          -3915.16

 OVERALL BUDGET ERROR =         274899.29           BUDGET ERROR =          -1456.83


  PERCENT DISCREPANCY =              1.89    PERCENT DISCREPANCY =             -0.76



1
 SUMMARY VOLUMETRIC BUDGET FOR GSFLOW 
 DATE: 06 16 1991              CUMULATIVE TIME STEP:      16
 MODFLOW STRESS PERIOD     10     CURRENT TIME STEP:     259     ITERATIONS:       6

 -----------------------------------------------------------------------------------

   CUMULATIVE VOLUMES               L**3   RATES FOR THIS TIME STEP           L**3/T
   ------------------                      ------------------------

                                     IN                                         IN
                                     --                                         --
        PRECIPITATION =        1.4671D+07          PRECIPITATION =                  
           STREAMFLOW =                               STREAMFLOW =                  
     GW BOUNDARY FLOW =            158.94       GW BOUNDARY FLOW =              1.52


                                    OUT                                        OUT
                                    ---                                        ---
   EVAPOTRANSPIRATION =        7953627.19     EVAPOTRANSPIRATION =         116834.76
           STREAMFLOW =        6680125.95             STREAMFLOW =          12628.01
     GW BOUNDARY FLOW =           9186.57       GW BOUNDARY FLOW =             33.07

   INFLOWS - OUTFLOWS =          28194.04     INFLOWS - OUTFLOWS =        -129494.32
             --------                                   --------

 TOTAL STORAGE CHANGE =        -238735.67         STORAGE CHANGE =        -128824.10
       --------------                             --------------
         LAND SURFACE =            106.65           LAND SURFACE =            -66.98
            SOIL ZONE =        2306281.51              SOIL ZONE =        -107560.37
     UNSATURATED ZONE =       -2982731.11       UNSATURATED ZONE =         -15537.82
       SATURATED ZONE =         437601.17         SATURATED ZONE =          -5658.99

 OVERALL BUDGET ERROR =         266929.71           BUDGET ERROR =           -670.22


  PERCENT DISCREPANCY =              1.81    PERCENT DISCREPANCY =             -0.52



1
 SUMMARY VOLUMETRIC BUDGET FOR GSFLOW 
 DATE: 06 23 1991              CUMULATIVE TIME STEP:      23
 MODFLOW STRESS PERIOD     10     CURRENT TIME STEP:     266     ITERATIONS:       7

 -----------------------------------------------------------------------------------

   CUMULATIVE VOLUMES               L**3   RATES FOR THIS TIME STEP           L**3/T
   ------------------                      ------------------------

                                     IN                                         IN
                                     --                                         --
        PRECIPITATION =        1.4671D+07          PRECIPITATION =                  
           STREAMFLOW =                               STREAMFLOW =                  
     GW BOUNDARY FLOW =            169.74       GW BOUNDARY FLOW =              1.56


                                    OUT                                        OUT
                                    ---                                        ---
   EVAPOTRANSPIRATION =        8494782.61     EVAPOTRANSPIRATION =          38633.27
           STREAMFLOW =        6761455.10             STREAMFLOW =          11842.73
     GW BOUNDARY FLOW =           9417.36       GW BOUNDARY FLOW =             32.94

   INFLOWS - OUTFLOWS =        -594510.53     INFLOWS - OUTFLOWS =         -50507.38
             --------                                   --------

 TOTAL STORAGE CHANGE =        -858281.32         STORAGE CHANGE =         -50274.20
       --------------                             --------------
         LAND SURFACE =             16.57           LAND SURFACE =             -3.65
            SOIL ZONE =        1839976.16              SOIL ZONE =         -31416.95
     UNSATURATED ZONE =       -3090691.53       UNSATURATED ZONE =         -12334.10
       SATURATED ZONE =         392410.92         SATURATED ZONE =          -6519.57

 OVERALL BUDGET ERROR =         263770.79           BUDGET ERROR =           -233.18


  PERCENT DISCREPANCY =              1.71    PERCENT DISCREPANCY =             -0.46



1
 SUMMARY VOLUMETRIC BUDGET FOR GSFLOW 
 DATE: 06 30 1991              CUMULATIVE TIME STEP:      30
 MODFLOW STRESS PERIOD     10     CURRENT TIME STEP:     273     ITERATIONS:       9

 -----------------------------------------------------------------------------------

[...]
                                    ---                                        ---
   EVAPOTRANSPIRATION =        7.2737D+07     EVAPOTRANSPIRATION =          72719.25
           STREAMFLOW =        6.9826D+07             STREAMFLOW =           7489.50
     GW BOUNDARY FLOW =          50964.20       GW BOUNDARY FLOW =             24.17

   INFLOWS - OUTFLOWS =       -9100399.08     INFLOWS - OUTFLOWS =         -80229.45
             --------                                   --------

 TOTAL STORAGE CHANGE =       -1.1975D+07         STORAGE CHANGE =         -80152.21
       --------------                             --------------
         LAND SURFACE =         179293.22           LAND SURFACE =         -11102.33
            SOIL ZONE =        1395645.71              SOIL ZONE =         -50597.05
     UNSATURATED ZONE =         -34697.55       UNSATURATED ZONE =         -11547.42
       SATURATED ZONE =       -1.3516D+07         SATURATED ZONE =          -6905.96

 OVERALL BUDGET ERROR =        2874802.23           BUDGET ERROR =            -77.24


  PERCENT DISCREPANCY =              2.00    PERCENT DISCREPANCY =             -0.10



1
 SUMMARY VOLUMETRIC BUDGET FOR GSFLOW 
 DATE: 09 03 1995              CUMULATIVE TIME STEP:       3
 MODFLOW STRESS PERIOD     61     CURRENT TIME STEP:    1799     ITERATIONS:       7

 -----------------------------------------------------------------------------------

   CUMULATIVE VOLUMES               L**3   RATES FOR THIS TIME STEP           L**3/T
   ------------------                      ------------------------

                                     IN                                         IN
                                     --                                         --
        PRECIPITATION =        1.3351D+08          PRECIPITATION =                  
           STREAMFLOW =                               STREAMFLOW =                  
     GW BOUNDARY FLOW =           5643.22       GW BOUNDARY FLOW =              3.56


                                    OUT                                        OUT
                                    ---                                        ---
   EVAPOTRANSPIRATION =        7.3217D+07     EVAPOTRANSPIRATION =          63233.58
           STREAMFLOW =        6.9875D+07             STREAMFLOW =           6737.55
     GW BOUNDARY FLOW =          51132.69       GW BOUNDARY FLOW =             23.98

   INFLOWS - OUTFLOWS =       -9628453.41     INFLOWS - OUTFLOWS =         -69991.55
             --------                                   --------

 TOTAL STORAGE CHANGE =       -1.2503D+07         STORAGE CHANGE =         -69977.56
       --------------                             --------------
         LAND SURFACE =         114525.52           LAND SURFACE =          -7766.54
            SOIL ZONE =        1062263.82              SOIL ZONE =         -43759.06
     UNSATURATED ZONE =        -110975.35       UNSATURATED ZONE =         -10666.80
       SATURATED ZONE =       -1.3569D+07         SATURATED ZONE =          -7785.70

 OVERALL BUDGET ERROR =        2874480.70           BUDGET ERROR =            -13.99


  PERCENT DISCREPANCY =              1.99    PERCENT DISCREPANCY =             -0.02



1
 SUMMARY VOLUMETRIC BUDGET FOR GSFLOW 
 DATE: 09 10 1995              CUMULATIVE TIME STEP:      10
 MODFLOW STRESS PERIOD     61     CURRENT TIME STEP:    1806     ITERATIONS:       7

 -----------------------------------------------------------------------------------

   CUMULATIVE VOLUMES               L**3   RATES FOR THIS TIME STEP           L**3/T
   ------------------                      ------------------------

                                     IN                                         IN
                                     --                                         --
        PRECIPITATION =        1.3351D+08          PRECIPITATION =                  
           STREAMFLOW =                               STREAMFLOW =                  
     GW BOUNDARY FLOW =           5668.47       GW BOUNDARY FLOW =              3.65


                                    OUT                                        OUT
                                    ---                                        ---
   EVAPOTRANSPIRATION =        7.3571D+07     EVAPOTRANSPIRATION =          47346.53
           STREAMFLOW =        6.9923D+07             STREAMFLOW =           6721.25
     GW BOUNDARY FLOW =          51300.65       GW BOUNDARY FLOW =             23.98

   INFLOWS - OUTFLOWS =       -1.0031D+07     INFLOWS - OUTFLOWS =         -54088.11
             --------                                   --------

 TOTAL STORAGE CHANGE =       -1.2905D+07         STORAGE CHANGE =         -54078.72
       --------------                             --------------
         LAND SURFACE =          75925.35           LAND SURFACE =          -4673.87
            SOIL ZONE =         820644.43              SOIL ZONE =         -31634.30
     UNSATURATED ZONE =        -181907.86       UNSATURATED ZONE =         -10226.68
       SATURATED ZONE =       -1.3620D+07         SATURATED ZONE =          -7544.41

 OVERALL BUDGET ERROR =        2874417.67           BUDGET ERROR =             -9.39


  PERCENT DISCREPANCY =              1.98    PERCENT DISCREPANCY =             -0.02



1
 SUMMARY VOLUMETRIC BUDGET FOR GSFLOW 
 DATE: 09 17 1995              CUMULATIVE TIME STEP:      17
 MODFLOW STRESS PERIOD     61     CURRENT TIME STEP:    1813     ITERATIONS:       7

 -----------------------------------------------------------------------------------

   CUMULATIVE VOLUMES               L**3   RATES FOR THIS TIME STEP           L**3/T
   ------------------                      ------------------------

                                     IN                                         IN
                                     --                                         --
        PRECIPITATION =        1.3351D+08          PRECIPITATION =                  
           STREAMFLOW =                               STREAMFLOW =                  
     GW BOUNDARY FLOW =           5694.35       GW BOUNDARY FLOW =              3.73


                                    OUT                                        OUT
                                    ---                                        ---
   EVAPOTRANSPIRATION =        7.3952D+07     EVAPOTRANSPIRATION =          43221.21
           STREAMFLOW =        6.9963D+07             STREAMFLOW =           5860.20
     GW BOUNDARY FLOW =          51467.80       GW BOUNDARY FLOW =             23.90

   INFLOWS - OUTFLOWS =       -1.0452D+07     INFLOWS - OUTFLOWS =         -49101.57
             --------                                   --------

 TOTAL STORAGE CHANGE =       -1.3327D+07         STORAGE CHANGE =         -49091.96
       --------------                             --------------
         LAND SURFACE =          44186.54           LAND SURFACE =          -3043.17
            SOIL ZONE =         574473.33              SOIL ZONE =         -26798.66
     UNSATURATED ZONE =        -257337.33       UNSATURATED ZONE =         -10458.59
       SATURATED ZONE =       -1.3688D+07         SATURATED ZONE =          -8792.08

 OVERALL BUDGET ERROR =        2874324.80           BUDGET ERROR =             -9.61


  PERCENT DISCREPANCY =              1.98    PERCENT DISCREPANCY =             -0.02



1
 SUMMARY VOLUMETRIC BUDGET FOR GSFLOW 
 DATE: 09 24 1995              CUMULATIVE TIME STEP:      24
 MODFLOW STRESS PERIOD     61     CURRENT TIME STEP:    1820     ITERATIONS:       6

 -----------------------------------------------------------------------------------

   CUMULATIVE VOLUMES               L**3   RATES FOR THIS TIME STEP           L**3/T
   ------------------                      ------------------------

                                     IN                                         IN
                                     --                                         --
        PRECIPITATION =        1.3351D+08          PRECIPITATION =                  
           STREAMFLOW =                               STREAMFLOW =                  
     GW BOUNDARY FLOW =           5720.83       GW BOUNDARY FLOW =              3.82


                                    OUT                                        OUT
                                    ---                                        ---
   EVAPOTRANSPIRATION =        7.4218D+07     EVAPOTRANSPIRATION =          27538.12
           STREAMFLOW =        7.0004D+07             STREAMFLOW =           6479.63
     GW BOUNDARY FLOW =          51635.07       GW BOUNDARY FLOW =             23.94

   INFLOWS - OUTFLOWS =       -1.0760D+07     INFLOWS - OUTFLOWS =         -34037.88
             --------                                   --------

 TOTAL STORAGE CHANGE =       -1.3634D+07         STORAGE CHANGE =         -34035.06
       --------------                             --------------
         LAND SURFACE =          28055.76           LAND SURFACE =          -1559.79
            SOIL ZONE =         417010.50              SOIL ZONE =         -15699.45
     UNSATURATED ZONE =        -328107.21       UNSATURATED ZONE =          -9002.48
       SATURATED ZONE =       -1.3752D+07         SATURATED ZONE =          -7773.88

 OVERALL BUDGET ERROR =        2874266.94           BUDGET ERROR =             -2.82


  PERCENT DISCREPANCY =              1.97    PERCENT DISCREPANCY =             -0.01



1
 SUMMARY VOLUMETRIC BUDGET FOR GSFLOW 
 DATE: 10 01 1995              CUMULATIVE TIME STEP:       1
 MODFLOW STRESS PERIOD     62     CURRENT TIME STEP:    1827     ITERATIONS:       6

 -----------------------------------------------------------------------------------

   CUMULATIVE VOLUMES               L**3   RATES FOR THIS TIME STEP           L**3/T
   ------------------                      ------------------------

                                     IN                                         IN
                                     --                                         --
        PRECIPITATION =        1.3351D+08          PRECIPITATION =                  
           STREAMFLOW =                               STREAMFLOW =                  
     GW BOUNDARY FLOW =           5747.87       GW BOUNDARY FLOW =              3.90


                                    OUT                                        OUT
                                    ---                                        ---
   EVAPOTRANSPIRATION =        7.4334D+07     EVAPOTRANSPIRATION =          16836.21
           STREAMFLOW =        7.0056D+07             STREAMFLOW =           7450.94
     GW BOUNDARY FLOW =          51803.23       GW BOUNDARY FLOW =             24.03

   INFLOWS - OUTFLOWS =       -1.0929D+07     INFLOWS - OUTFLOWS =         -24307.28
             --------                                   --------

 TOTAL STORAGE CHANGE =       -1.3803D+07         STORAGE CHANGE =         -24307.71
       --------------                             --------------
         LAND SURFACE =          22241.70           LAND SURFACE =           -699.89
            SOIL ZONE =         353519.70              SOIL ZONE =          -9292.75
     UNSATURATED ZONE =        -384718.62       UNSATURATED ZONE =          -7933.33
       SATURATED ZONE =       -1.3794D+07         SATURATED ZONE =          -6382.28

 OVERALL BUDGET ERROR =        2874261.18           BUDGET ERROR =              0.43


  PERCENT DISCREPANCY =              1.97    PERCENT DISCREPANCY =              0.00



1
 SUMMARY VOLUMETRIC BUDGET FOR GSFLOW 
 DATE: 10 08 1995              CUMULATIVE TIME STEP:       8
 MODFLOW STRESS PERIOD     62     CURRENT TIME STEP:    1834     ITERATIONS:       6

 -----------------------------------------------------------------------------------

   CUMULATIVE VOLUMES               L**3   RATES FOR THIS TIME STEP           L**3/T
   ------------------                      ------------------------

                                     IN                                         IN
                                     --                                         --
        PRECIPITATION =        1.3351D+08          PRECIPITATION =                  
           STREAMFLOW =                               STREAMFLOW =                  
     GW BOUNDARY FLOW =           5775.46       GW BOUNDARY FLOW =              3.97


                                    OUT                                        OUT
                                    ---                                        ---
   EVAPOTRANSPIRATION =        7.4458D+07     EVAPOTRANSPIRATION =          15533.30
           STREAMFLOW =        7.0107D+07             STREAMFLOW =           7352.14
     GW BOUNDARY FLOW =          51971.35       GW BOUNDARY FLOW =             24.03

   INFLOWS - OUTFLOWS =       -1.1103D+07     INFLOWS - OUTFLOWS =         -22905.49
             --------                                   --------

 TOTAL STORAGE CHANGE =       -1.3977D+07         STORAGE CHANGE =         -22905.10
       --------------                             --------------
         LAND SURFACE =          18179.46           LAND SURFACE =           -628.45
            SOIL ZONE =         285570.38              SOIL ZONE =          -8236.50
     UNSATURATED ZONE =        -438807.07       UNSATURATED ZONE =          -7337.86
       SATURATED ZONE =       -1.3842D+07         SATURATED ZONE =          -6702.83

 OVERALL BUDGET ERROR =        2874248.59           BUDGET ERROR =             -0.40


  PERCENT DISCREPANCY =              1.97    PERCENT DISCREPANCY =             -0.00



1
 SUMMARY VOLUMETRIC BUDGET FOR GSFLOW 
 DATE: 10 15 1995              CUMULATIVE TIME STEP:      15
 MODFLOW STRESS PERIOD     62     CURRENT TIME STEP:    1841     ITERATIONS:       5

 -----------------------------------------------------------------------------------

   CUMULATIVE VOLUMES               L**3   RATES FOR THIS TIME STEP           L**3/T
   ------------------                      ------------------------

                                     IN                                         IN
                                     --                                         --
        PRECIPITATION =        1.3351D+08          PRECIPITATION =                  
           STREAMFLOW =                               STREAMFLOW =                  
     GW BOUNDARY FLOW =           5803.54       GW BOUNDARY FLOW =              4.04


                                    OUT                                        OUT
                                    ---                                        ---
   EVAPOTRANSPIRATION =        7.4574D+07     EVAPOTRANSPIRATION =          18133.99
           STREAMFLOW =        7.0157D+07             STREAMFLOW =           6940.47
     GW BOUNDARY FLOW =          52139.43       GW BOUNDARY FLOW =             24.00

   INFLOWS - OUTFLOWS =       -1.1269D+07     INFLOWS - OUTFLOWS =         -25094.42
             --------                                   --------

 TOTAL STORAGE CHANGE =       -1.4143D+07         STORAGE CHANGE =         -25093.44
       --------------                             --------------
         LAND SURFACE =          14037.99           LAND SURFACE =           -696.58
            SOIL ZONE =         224353.07              SOIL ZONE =          -9356.11
     UNSATURATED ZONE =        -487967.98       UNSATURATED ZONE =          -6924.21
       SATURATED ZONE =       -1.3894D+07         SATURATED ZONE =          -8117.08

 OVERALL BUDGET ERROR =        2874230.15           BUDGET ERROR =             -0.97


  PERCENT DISCREPANCY =              1.97    PERCENT DISCREPANCY =             -0.00



1
 SUMMARY VOLUMETRIC BUDGET FOR GSFLOW 
 DATE: 10 22 1995              CUMULATIVE TIME STEP:      22
 MODFLOW STRESS PERIOD     62     CURRENT TIME STEP:    1848     ITERATIONS:      16

 -----------------------------------------------------------------------------------

   CUMULATIVE VOLUMES               L**3   RATES FOR THIS TIME STEP           L**3/T
   ------------------                      ------------------------

                                     IN                                         IN
                                     --                                         --
        PRECIPITATION =        1.3351D+08          PRECIPITATION =                  
           STREAMFLOW =                               STREAMFLOW =                  
     GW BOUNDARY FLOW =           5832.07       GW BOUNDARY FLOW =              4.10


                                    OUT                                        OUT
                                    ---                                        ---
   EVAPOTRANSPIRATION =        7.4678D+07     EVAPOTRANSPIRATION =           4717.60
           STREAMFLOW =        7.0207D+07             STREAMFLOW =           8101.25
     GW BOUNDARY FLOW =          52307.53       GW BOUNDARY FLOW =             24.10

   INFLOWS - OUTFLOWS =       -1.1423D+07     INFLOWS - OUTFLOWS =         -12838.85
             --------                                   --------

 TOTAL STORAGE CHANGE =       -1.4297D+07         STORAGE CHANGE =         -12840.29
       --------------                             --------------
         LAND SURFACE =          10452.80           LAND SURFACE =             -6.45
            SOIL ZONE =         172803.00              SOIL ZONE =          -2086.26
     UNSATURATED ZONE =        -533524.92       UNSATURATED ZONE =          -6047.44
       SATURATED ZONE =       -1.3948D+07         SATURATED ZONE =          -4700.68

 OVERALL BUDGET ERROR =        2874215.31           BUDGET ERROR =              1.44


  PERCENT DISCREPANCY =              1.96    PERCENT DISCREPANCY =              0.01



1
 SUMMARY VOLUMETRIC BUDGET FOR GSFLOW 
 DATE: 10 29 1995              CUMULATIVE TIME STEP:      29
 MODFLOW STRESS PERIOD     62     CURRENT TIME STEP:    1855     ITERATIONS:       6

 -----------------------------------------------------------------------------------

   CUMULATIVE VOLUMES               L**3   RATES FOR THIS TIME STEP           L**3/T
   ------------------                      ------------------------

                                     IN                                         IN
                                     --                                         --
        PRECIPITATION =        1.3351D+08          PRECIPITATION =                  
           STREAMFLOW =                               STREAMFLOW =                  
     GW BOUNDARY FLOW =           5861.02       GW BOUNDARY FLOW =              4.16


                                    OUT                                        OUT
                                    ---                                        ---
   EVAPOTRANSPIRATION =        7.4744D+07     EVAPOTRANSPIRATION =          11359.58
           STREAMFLOW =        7.0261D+07             STREAMFLOW =           7444.87
     GW BOUNDARY FLOW =          52476.06       GW BOUNDARY FLOW =             24.05

   INFLOWS - OUTFLOWS =       -1.1543D+07     INFLOWS - OUTFLOWS =         -18824.35
             --------                                   --------

 TOTAL STORAGE CHANGE =       -1.4417D+07         STORAGE CHANGE =         -18823.90
       --------------                             --------------
         LAND SURFACE =           9254.99           LAND SURFACE =           -359.13
            SOIL ZONE =         142442.26              SOIL ZONE =          -5088.28
     UNSATURATED ZONE =        -576736.37       UNSATURATED ZONE =          -6197.09
       SATURATED ZONE =       -1.3993D+07         SATURATED ZONE =          -7179.93

 OVERALL BUDGET ERROR =        2874213.42           BUDGET ERROR =             -0.45


  PERCENT DISCREPANCY =              1.96    PERCENT DISCREPANCY =             -0.00



