1
 SUMMARY VOLUMETRIC BUDGET FOR GSFLOW 
 DATE: 10 07 1990              CUMULATIVE TIME STEP:       7
 MODFLOW STRESS PERIOD      2     CURRENT TIME STEP:       7     ITERATIONS:       7

 -----------------------------------------------------------------------------------

   CUMULATIVE VOLUMES               L**3   RATES FOR THIS TIME STEP           L**3/T
   ------------------                      ------------------------

                                     IN                                         IN
                                     --                                         --
        PRECIPITATION =                            PRECIPITATION =                  
           STREAMFLOW =                               STREAMFLOW =                  
     GW BOUNDARY FLOW =                         GW BOUNDARY FLOW =                  


                                    OUT                                        OUT
                                    ---                                        ---
   EVAPOTRANSPIRATION =         385031.63     EVAPOTRANSPIRATION =          11801.34
           STREAMFLOW =          45661.62             STREAMFLOW =           8128.74
     GW BOUNDARY FLOW =            252.78       GW BOUNDARY FLOW =             36.30

   INFLOWS - OUTFLOWS =        -430946.02     INFLOWS - OUTFLOWS =         -19966.38
             --------                                   --------

 TOTAL STORAGE CHANGE =        -429349.30         STORAGE CHANGE =         -19938.27
       --------------                             --------------
         LAND SURFACE =                             LAND SURFACE =                  
            SOIL ZONE =         -33378.23              SOIL ZONE =           -943.72
     UNSATURATED ZONE =        -502794.45       UNSATURATED ZONE =         -33592.86
       SATURATED ZONE =         106823.38         SATURATED ZONE =          14598.31

 OVERALL BUDGET ERROR =          -1596.73           BUDGET ERROR =            -28.11


  PERCENT DISCREPANCY =             -0.37    PERCENT DISCREPANCY =             -0.14



1
 SUMMARY VOLUMETRIC BUDGET FOR GSFLOW 
 DATE: 10 14 1990              CUMULATIVE TIME STEP:      14
 MODFLOW STRESS PERIOD      2     CURRENT TIME STEP:      14     ITERATIONS:       6

 -----------------------------------------------------------------------------------

   CUMULATIVE VOLUMES               L**3   RATES FOR THIS TIME STEP           L**3/T
   ------------------                      ------------------------

                                     IN                                         IN
                                     --                                         --
        PRECIPITATION =                            PRECIPITATION =                  
           STREAMFLOW =                               STREAMFLOW =                  
     GW BOUNDARY FLOW =                         GW BOUNDARY FLOW =                  


                                    OUT                                        OUT
                                    ---                                        ---
   EVAPOTRANSPIRATION =         665235.67     EVAPOTRANSPIRATION =          42298.13
           STREAMFLOW =         100376.28             STREAMFLOW =           7413.77
     GW BOUNDARY FLOW =            506.61       GW BOUNDARY FLOW =             36.24

   INFLOWS - OUTFLOWS =        -766118.56     INFLOWS - OUTFLOWS =         -49748.13
             --------                                   --------

 TOTAL STORAGE CHANGE =        -764147.46         STORAGE CHANGE =         -49710.78
       --------------                             --------------
         LAND SURFACE =                             LAND SURFACE =                  
            SOIL ZONE =         -58187.20              SOIL ZONE =          -4381.89
     UNSATURATED ZONE =        -877795.88       UNSATURATED ZONE =         -52080.86
       SATURATED ZONE =         171835.62         SATURATED ZONE =           6751.97

 OVERALL BUDGET ERROR =          -1971.10           BUDGET ERROR =            -37.36


  PERCENT DISCREPANCY =             -0.26    PERCENT DISCREPANCY =             -0.08



1
 SUMMARY VOLUMETRIC BUDGET FOR GSFLOW 
 DATE: 10 21 1990              CUMULATIVE TIME STEP:      21
 MODFLOW STRESS PERIOD      2     CURRENT TIME STEP:      21     ITERATIONS:       6

 -----------------------------------------------------------------------------------

   CUMULATIVE VOLUMES               L**3   RATES FOR THIS TIME STEP           L**3/T
   ------------------                      ------------------------

                                     IN                                         IN
                                     --                                         --
        PRECIPITATION =         188432.87          PRECIPITATION =                  
           STREAMFLOW =                               STREAMFLOW =                  
     GW BOUNDARY FLOW =                         GW BOUNDARY FLOW =                  


                                    OUT                                        OUT
                                    ---                                        ---
   EVAPOTRANSPIRATION =         815509.46     EVAPOTRANSPIRATION =          41726.08
           STREAMFLOW =         163153.13             STREAMFLOW =          10150.91
     GW BOUNDARY FLOW =            760.80       GW BOUNDARY FLOW =             36.37

   INFLOWS - OUTFLOWS =        -790990.52     INFLOWS - OUTFLOWS =         -51913.36
             --------                                   --------

 TOTAL STORAGE CHANGE =        -790161.38         STORAGE CHANGE =         -51906.03
       --------------                             --------------
         LAND SURFACE =          18885.57           LAND SURFACE =         -43558.49
            SOIL ZONE =          47353.77              SOIL ZONE =           2011.83
     UNSATURATED ZONE =       -1091550.87       UNSATURATED ZONE =         -21331.07
       SATURATED ZONE =         235150.15         SATURATED ZONE =          10971.69

 OVERALL BUDGET ERROR =           -829.13           BUDGET ERROR =             -7.33


  PERCENT DISCREPANCY =             -0.08    PERCENT DISCREPANCY =             -0.01



1
 SUMMARY VOLUMETRIC BUDGET FOR GSFLOW 
 DATE: 10 28 1990              CUMULATIVE TIME STEP:      28
 MODFLOW STRESS PERIOD      2     CURRENT TIME STEP:      28     ITERATIONS:       6

 -----------------------------------------------------------------------------------

   CUMULATIVE VOLUMES               L**3   RATES FOR THIS TIME STEP           L**3/T
   ------------------                      ------------------------

                                     IN                                         IN
                                     --                                         --
        PRECIPITATION =         188432.87          PRECIPITATION =                  
           STREAMFLOW =                               STREAMFLOW =                  
     GW BOUNDARY FLOW =                         GW BOUNDARY FLOW =                  


                                    OUT                                        OUT
                                    ---                                        ---
   EVAPOTRANSPIRATION =         943929.97     EVAPOTRANSPIRATION =          11829.04
           STREAMFLOW =         224596.82             STREAMFLOW =           8923.14
     GW BOUNDARY FLOW =           1013.98       GW BOUNDARY FLOW =             36.12

   INFLOWS - OUTFLOWS =        -981107.91     INFLOWS - OUTFLOWS =         -20788.30
             --------                                   --------

 TOTAL STORAGE CHANGE =        -980171.69         STORAGE CHANGE =         -20779.05
       --------------                             --------------
         LAND SURFACE =                             LAND SURFACE =                  
            SOIL ZONE =          18302.12              SOIL ZONE =          -3431.00
     UNSATURATED ZONE =       -1274920.08       UNSATURATED ZONE =         -23234.20
       SATURATED ZONE =         276446.26         SATURATED ZONE =           5886.16

 OVERALL BUDGET ERROR =           -936.21           BUDGET ERROR =             -9.26


  PERCENT DISCREPANCY =             -0.08    PERCENT DISCREPANCY =             -0.04



1
 SUMMARY VOLUMETRIC BUDGET FOR GSFLOW 
 DATE: 11 04 1990              CUMULATIVE TIME STEP:       4
 MODFLOW STRESS PERIOD      3     CURRENT TIME STEP:      35     ITERATIONS:       6

 -----------------------------------------------------------------------------------

   CUMULATIVE VOLUMES               L**3   RATES FOR THIS TIME STEP           L**3/T
   ------------------                      ------------------------

                                     IN                                         IN
                                     --                                         --
        PRECIPITATION =         703113.06          PRECIPITATION =                  
           STREAMFLOW =                               STREAMFLOW =                  
     GW BOUNDARY FLOW =                         GW BOUNDARY FLOW =                  


                                    OUT                                        OUT
                                    ---                                        ---
   EVAPOTRANSPIRATION =        1004523.07     EVAPOTRANSPIRATION =          26291.26
           STREAMFLOW =         295193.97             STREAMFLOW =          10649.73
     GW BOUNDARY FLOW =           1267.03       GW BOUNDARY FLOW =             36.14

   INFLOWS - OUTFLOWS =        -597871.01     INFLOWS - OUTFLOWS =         -36977.14
             --------                                   --------

 TOTAL STORAGE CHANGE =        -601926.96         STORAGE CHANGE =         -38211.88
       --------------                             --------------
         LAND SURFACE =         132159.65           LAND SURFACE =        -160480.33
            SOIL ZONE =         350094.68              SOIL ZONE =         132915.31
     UNSATURATED ZONE =       -1420413.47       UNSATURATED ZONE =         -20041.14
       SATURATED ZONE =         336232.16         SATURATED ZONE =           9394.27

 OVERALL BUDGET ERROR =           4055.96           BUDGET ERROR =           1234.75

  ***WARNING, FLUX RATES OFF > 3%

  PERCENT DISCREPANCY =              0.31    PERCENT DISCREPANCY =              3.28



1
 SUMMARY VOLUMETRIC BUDGET FOR GSFLOW 
 DATE: 11 11 1990              CUMULATIVE TIME STEP:      11
 MODFLOW STRESS PERIOD      3     CURRENT TIME STEP:      42     ITERATIONS:       6

 -----------------------------------------------------------------------------------

   CUMULATIVE VOLUMES               L**3   RATES FOR THIS TIME STEP           L**3/T
   ------------------                      ------------------------

                                     IN                                         IN
                                     --                                         --
        PRECIPITATION =         703113.06          PRECIPITATION =                  
           STREAMFLOW =                               STREAMFLOW =                  
     GW BOUNDARY FLOW =                         GW BOUNDARY FLOW =                  


                                    OUT                                        OUT
                                    ---                                        ---
   EVAPOTRANSPIRATION =        1081667.31     EVAPOTRANSPIRATION =          12126.53
           STREAMFLOW =         366264.48             STREAMFLOW =           9645.83
     GW BOUNDARY FLOW =           1519.13       GW BOUNDARY FLOW =             35.92

   INFLOWS - OUTFLOWS =        -746337.87     INFLOWS - OUTFLOWS =         -21808.28
             --------                                   --------

 TOTAL STORAGE CHANGE =        -750516.17         STORAGE CHANGE =         -21799.79
       --------------                             --------------
         LAND SURFACE =            595.09           LAND SURFACE =          -1416.54
            SOIL ZONE =         422381.46              SOIL ZONE =          -5415.71
     UNSATURATED ZONE =       -1559470.10       UNSATURATED ZONE =         -19844.02
       SATURATED ZONE =         385977.34         SATURATED ZONE =           4876.48

 OVERALL BUDGET ERROR =           4178.31           BUDGET ERROR =             -8.49


  PERCENT DISCREPANCY =              0.29    PERCENT DISCREPANCY =             -0.04



1
 SUMMARY VOLUMETRIC BUDGET FOR GSFLOW 
 DATE: 11 18 1990              CUMULATIVE TIME STEP:      18
 MODFLOW STRESS PERIOD      3     CURRENT TIME STEP:      49     ITERATIONS:       6

 -----------------------------------------------------------------------------------

   CUMULATIVE VOLUMES               L**3   RATES FOR THIS TIME STEP           L**3/T
   ------------------                      ------------------------

                                     IN                                         IN
                                     --                                         --
        PRECIPITATION =         747883.35          PRECIPITATION =                  
           STREAMFLOW =                               STREAMFLOW =                  
     GW BOUNDARY FLOW =                         GW BOUNDARY FLOW =                  


                                    OUT                                        OUT
                                    ---                                        ---
   EVAPOTRANSPIRATION =        1154065.59     EVAPOTRANSPIRATION =           5057.00
           STREAMFLOW =         437994.43             STREAMFLOW =          10679.06
     GW BOUNDARY FLOW =           1770.44       GW BOUNDARY FLOW =             35.88

   INFLOWS - OUTFLOWS =        -845947.11     INFLOWS - OUTFLOWS =         -15771.94
             --------                                   --------

 TOTAL STORAGE CHANGE =        -850121.71         STORAGE CHANGE =         -15776.92
       --------------                             --------------
         LAND SURFACE =           7868.08           LAND SURFACE =          -3691.47
            SOIL ZONE =         404477.33              SOIL ZONE =           -745.85
     UNSATURATED ZONE =       -1692614.64       UNSATURATED ZONE =         -18606.85
       SATURATED ZONE =         430147.47         SATURATED ZONE =           7267.25

 OVERALL BUDGET ERROR =           4174.60           BUDGET ERROR =              4.98


  PERCENT DISCREPANCY =              0.26    PERCENT DISCREPANCY =              0.03



1
 SUMMARY VOLUMETRIC BUDGET FOR GSFLOW 
 DATE: 11 25 1990              CUMULATIVE TIME STEP:      25
 MODFLOW STRESS PERIOD      3     CURRENT TIME STEP:      56     ITERATIONS:       6

 -----------------------------------------------------------------------------------

   CUMULATIVE VOLUMES               L**3   RATES FOR THIS TIME STEP           L**3/T
   ------------------                      ------------------------

                                     IN                                         IN
                                     --                                         --
        PRECIPITATION =        1009043.38          PRECIPITATION =         186542.88
           STREAMFLOW =                               STREAMFLOW =                  
     GW BOUNDARY FLOW =                         GW BOUNDARY FLOW =                  


                                    OUT                                        OUT
                                    ---                                        ---
   EVAPOTRANSPIRATION =        1214524.62     EVAPOTRANSPIRATION =           3754.62
           STREAMFLOW =         514035.58             STREAMFLOW =          10880.55
     GW BOUNDARY FLOW =           2021.39       GW BOUNDARY FLOW =             35.79

   INFLOWS - OUTFLOWS =        -721538.20     INFLOWS - OUTFLOWS =         171871.91
             --------                                   --------

 TOTAL STORAGE CHANGE =        -727814.83         STORAGE CHANGE =         170020.16
       --------------                             --------------
         LAND SURFACE =          86180.68           LAND SURFACE =          69567.13
            SOIL ZONE =         526579.70              SOIL ZONE =         112087.63
     UNSATURATED ZONE =       -1820196.54       UNSATURATED ZONE =         -17909.63
       SATURATED ZONE =         479621.27         SATURATED ZONE =           6275.03

 OVERALL BUDGET ERROR =           6276.63           BUDGET ERROR =           1851.75


  PERCENT DISCREPANCY =              0.36    PERCENT DISCREPANCY =              1.00



1
 SUMMARY VOLUMETRIC BUDGET FOR GSFLOW 
 DATE: 12 02 1990              CUMULATIVE TIME STEP:       2
 MODFLOW STRESS PERIOD      4     CURRENT TIME STEP:      63     ITERATIONS:       6

 -----------------------------------------------------------------------------------

   CUMULATIVE VOLUMES               L**3   RATES FOR THIS TIME STEP           L**3/T
   ------------------                      ------------------------

                                     IN                                         IN
                                     --                                         --
        PRECIPITATION =        1449284.55          PRECIPITATION =                  
           STREAMFLOW =                               STREAMFLOW =                  
     GW BOUNDARY FLOW =                         GW BOUNDARY FLOW =                  


                                    OUT                                        OUT
                                    ---                                        ---
   EVAPOTRANSPIRATION =        1221020.42     EVAPOTRANSPIRATION =            234.75
           STREAMFLOW =         591294.03             STREAMFLOW =          11082.05
     GW BOUNDARY FLOW =           2271.88       GW BOUNDARY FLOW =             35.77

   INFLOWS - OUTFLOWS =        -365301.78     INFLOWS - OUTFLOWS =         -11352.57
             --------                                   --------

 TOTAL STORAGE CHANGE =        -372695.33         STORAGE CHANGE =         -11365.17
       --------------                             --------------
         LAND SURFACE =         486845.62           LAND SURFACE =           -339.04
            SOIL ZONE =         558839.81              SOIL ZONE =            142.27
     UNSATURATED ZONE =       -1943048.15       UNSATURATED ZONE =         -17256.17
       SATURATED ZONE =         524667.30         SATURATED ZONE =           6087.77

 OVERALL BUDGET ERROR =           7393.56           BUDGET ERROR =             12.59


  PERCENT DISCREPANCY =              0.41    PERCENT DISCREPANCY =              0.11



1
 SUMMARY VOLUMETRIC BUDGET FOR GSFLOW 
 DATE: 12 09 1990              CUMULATIVE TIME STEP:       9
 MODFLOW STRESS PERIOD      4     CURRENT TIME STEP:      70     ITERATIONS:       6

 -----------------------------------------------------------------------------------

   CUMULATIVE VOLUMES               L**3   RATES FOR THIS TIME STEP           L**3/T
   ------------------                      ------------------------

                                     IN                                         IN
                                     --                                         --
        PRECIPITATION =        1449284.55          PRECIPITATION =                  
           STREAMFLOW =                               STREAMFLOW =                  
     GW BOUNDARY FLOW =                         GW BOUNDARY FLOW =                  


                                    OUT                                        OUT
                                    ---                                        ---
   EVAPOTRANSPIRATION =        1296907.52     EVAPOTRANSPIRATION =          13862.24
           STREAMFLOW =         669100.26             STREAMFLOW =          10925.95
     GW BOUNDARY FLOW =           2521.84       GW BOUNDARY FLOW =             35.65

   INFLOWS - OUTFLOWS =        -519245.07     INFLOWS - OUTFLOWS =         -24823.84
             --------                                   --------

 TOTAL STORAGE CHANGE =        -531005.42         STORAGE CHANGE =         -24917.88
       --------------                             --------------
         LAND SURFACE =          67215.41           LAND SURFACE =         -45889.70
            SOIL ZONE =         901371.76              SOIL ZONE =          33526.81
     UNSATURATED ZONE =       -2060854.66       UNSATURATED ZONE =         -16486.71
       SATURATED ZONE =         561261.96         SATURATED ZONE =           3931.71

 OVERALL BUDGET ERROR =          11760.35           BUDGET ERROR =             94.04


  PERCENT DISCREPANCY =              0.60    PERCENT DISCREPANCY =              0.38



1
 SUMMARY VOLUMETRIC BUDGET FOR GSFLOW 
 DATE: 12 16 1990              CUMULATIVE TIME STEP:      16
 MODFLOW STRESS PERIOD      4     CURRENT TIME STEP:      77     ITERATIONS:       5

 -----------------------------------------------------------------------------------

   CUMULATIVE VOLUMES               L**3   RATES FOR THIS TIME STEP           L**3/T
   ------------------                      ------------------------

                                     IN                                         IN
                                     --                                         --
        PRECIPITATION =        1804962.84          PRECIPITATION =                  
           STREAMFLOW =                               STREAMFLOW =                  
     GW BOUNDARY FLOW =                         GW BOUNDARY FLOW =                  


                                    OUT                                        OUT
                                    ---                                        ---
   EVAPOTRANSPIRATION =        1325196.46     EVAPOTRANSPIRATION =                  
           STREAMFLOW =         748839.25             STREAMFLOW =          11521.23
     GW BOUNDARY FLOW =           2771.25       GW BOUNDARY FLOW =             35.61

   INFLOWS - OUTFLOWS =        -271844.12     INFLOWS - OUTFLOWS =         -11556.83
             --------                                   --------

 TOTAL STORAGE CHANGE =        -285866.44         STORAGE CHANGE =         -11572.04
       --------------                             --------------
         LAND SURFACE =         252566.26           LAND SURFACE =                  
            SOIL ZONE =        1043782.76              SOIL ZONE =            -32.91
     UNSATURATED ZONE =       -2174195.37       UNSATURATED ZONE =         -15930.82
       SATURATED ZONE =         591979.75         SATURATED ZONE =           4391.69

 OVERALL BUDGET ERROR =          14022.32           BUDGET ERROR =             15.21


  PERCENT DISCREPANCY =              0.67    PERCENT DISCREPANCY =              0.13



1
 SUMMARY VOLUMETRIC BUDGET FOR GSFLOW 
 DATE: 12 23 1990              CUMULATIVE TIME STEP:      23
 MODFLOW STRESS PERIOD      4     CURRENT TIME STEP:      84     ITERATIONS:       6

 -----------------------------------------------------------------------------------

   CUMULATIVE VOLUMES               L**3   RATES FOR THIS TIME STEP           L**3/T
   ------------------                      ------------------------

                                     IN                                         IN
                                     --                                         --
        PRECIPITATION =        2276236.55          PRECIPITATION =                  
           STREAMFLOW =                               STREAMFLOW =                  
     GW BOUNDARY FLOW =              0.08       GW BOUNDARY FLOW =              0.04


                                    OUT                                        OUT
                                    ---                                        ---
   EVAPOTRANSPIRATION =        1326254.06     EVAPOTRANSPIRATION =                  
           STREAMFLOW =         829685.77             STREAMFLOW =          11569.40
     GW BOUNDARY FLOW =           3020.29       GW BOUNDARY FLOW =             35.57

   INFLOWS - OUTFLOWS =         117276.52     INFLOWS - OUTFLOWS =         -11604.93
             --------                                   --------

 TOTAL STORAGE CHANGE =         103162.12         STORAGE CHANGE =         -11616.90
       --------------                             --------------
         LAND SURFACE =         722784.34           LAND SURFACE =                  
            SOIL ZONE =        1043900.32              SOIL ZONE =             46.58
     UNSATURATED ZONE =       -2283404.13       UNSATURATED ZONE =         -15356.22
       SATURATED ZONE =         619881.39         SATURATED ZONE =           3692.73

 OVERALL BUDGET ERROR =          14114.40           BUDGET ERROR =             11.97


  PERCENT DISCREPANCY =              0.62    PERCENT DISCREPANCY =              0.10



1
 SUMMARY VOLUMETRIC BUDGET FOR GSFLOW 
 DATE: 12 30 1990              CUMULATIVE TIME STEP:      30
 MODFLOW STRESS PERIOD      4     CURRENT TIME STEP:      91     ITERATIONS:       5

 -----------------------------------------------------------------------------------

   CUMULATIVE VOLUMES               L**3   RATES FOR THIS TIME STEP           L**3/T
   ------------------                      ------------------------

                                     IN                                         IN
                                     --                                         --
        PRECIPITATION =        2276236.55          PRECIPITATION =                  
           STREAMFLOW =                               STREAMFLOW =                  
     GW BOUNDARY FLOW =              0.77       GW BOUNDARY FLOW =              0.14


                                    OUT                                        OUT
                                    ---                                        ---
   EVAPOTRANSPIRATION =        1326821.56     EVAPOTRANSPIRATION =                  
           STREAMFLOW =         910941.79             STREAMFLOW =          11639.90
     GW BOUNDARY FLOW =           3269.40       GW BOUNDARY FLOW =             35.60

   INFLOWS - OUTFLOWS =          35204.57     INFLOWS - OUTFLOWS =         -11675.36
             --------                                   --------

 TOTAL STORAGE CHANGE =          21013.22         STORAGE CHANGE =         -11685.39
       --------------                             --------------
         LAND SURFACE =         722216.94           LAND SURFACE =                  
            SOIL ZONE =        1044428.63              SOIL ZONE =             94.73
     UNSATURATED ZONE =       -2388697.51       UNSATURATED ZONE =         -14807.74
       SATURATED ZONE =         643064.92         SATURATED ZONE =           3027.61

 OVERALL BUDGET ERROR =          14191.34           BUDGET ERROR =             10.03


  PERCENT DISCREPANCY =              0.63    PERCENT DISCREPANCY =              0.09



1
 SUMMARY VOLUMETRIC BUDGET FOR GSFLOW 
 DATE: 01 06 1991              CUMULATIVE TIME STEP:       6
 MODFLOW STRESS PERIOD      5     CURRENT TIME STEP:      98     ITERATIONS:       5

 -----------------------------------------------------------------------------------

   CUMULATIVE VOLUMES               L**3   RATES FOR THIS TIME STEP           L**3/T
   ------------------                      ------------------------

                                     IN                                         IN
                                     --                                         --
        PRECIPITATION =        2276236.55          PRECIPITATION =                  
           STREAMFLOW =                               STREAMFLOW =                  
     GW BOUNDARY FLOW =              2.09       GW BOUNDARY FLOW =              0.22


                                    OUT                                        OUT
                                    ---                                        ---
   EVAPOTRANSPIRATION =        1353833.52     EVAPOTRANSPIRATION =           3184.25
           STREAMFLOW =         992866.77             STREAMFLOW =          11744.11
     GW BOUNDARY FLOW =           3519.28       GW BOUNDARY FLOW =             35.75

   INFLOWS - OUTFLOWS =         -73980.93     INFLOWS - OUTFLOWS =         -14963.89
             --------                                   --------

 TOTAL STORAGE CHANGE =         -90724.31         STORAGE CHANGE =         -15096.30
       --------------                             --------------
         LAND SURFACE =         592099.77           LAND SURFACE =          -8106.31
            SOIL ZONE =        1145682.92              SOIL ZONE =           4882.02
     UNSATURATED ZONE =       -2490040.99       UNSATURATED ZONE =         -14245.44
       SATURATED ZONE =         661533.71         SATURATED ZONE =           2373.43

 OVERALL BUDGET ERROR =          16743.37           BUDGET ERROR =            132.41


  PERCENT DISCREPANCY =              0.71    PERCENT DISCREPANCY =              0.88



1
 SUMMARY VOLUMETRIC BUDGET FOR GSFLOW 
 DATE: 01 13 1991              CUMULATIVE TIME STEP:      13
 MODFLOW STRESS PERIOD      5     CURRENT TIME STEP:     105     ITERATIONS:       6

 -----------------------------------------------------------------------------------

   CUMULATIVE VOLUMES               L**3   RATES FOR THIS TIME STEP           L**3/T
   ------------------                      ------------------------

                                     IN                                         IN
                                     --                                         --
        PRECIPITATION =        2596386.94          PRECIPITATION =          10327.43
           STREAMFLOW =                               STREAMFLOW =                  
     GW BOUNDARY FLOW =              4.01       GW BOUNDARY FLOW =              0.31


                                    OUT                                        OUT
                                    ---                                        ---
   EVAPOTRANSPIRATION =        1420654.73     EVAPOTRANSPIRATION =          18625.37
           STREAMFLOW =        1075242.47             STREAMFLOW =          11747.53
     GW BOUNDARY FLOW =           3769.51       GW BOUNDARY FLOW =             35.73

   INFLOWS - OUTFLOWS =          96724.25     INFLOWS - OUTFLOWS =         -20080.89
             --------                                   --------

 TOTAL STORAGE CHANGE =          75031.82         STORAGE CHANGE =         -21305.18
       --------------                             --------------
         LAND SURFACE =         529885.07           LAND SURFACE =        -135264.71
            SOIL ZONE =        1458049.16              SOIL ZONE =         126525.59
     UNSATURATED ZONE =       -2587310.41       UNSATURATED ZONE =         -13691.18
       SATURATED ZONE =         674407.68         SATURATED ZONE =           1125.10

 OVERALL BUDGET ERROR =          21692.43           BUDGET ERROR =           1224.30

  ***WARNING, FLUX RATES OFF > 3%

  PERCENT DISCREPANCY =              0.84    PERCENT DISCREPANCY =              3.95



1
 SUMMARY VOLUMETRIC BUDGET FOR GSFLOW 
 DATE: 01 20 1991              CUMULATIVE TIME STEP:      20
 MODFLOW STRESS PERIOD      5     CURRENT TIME STEP:     112     ITERATIONS:       5

 -----------------------------------------------------------------------------------

   CUMULATIVE VOLUMES               L**3   RATES FOR THIS TIME STEP           L**3/T
   ------------------                      ------------------------

                                     IN                                         IN
                                     --                                         --
        PRECIPITATION =        2596386.94          PRECIPITATION =                  
           STREAMFLOW =                               STREAMFLOW =                  
     GW BOUNDARY FLOW =              6.54       GW BOUNDARY FLOW =              0.40


                                    OUT                                        OUT
                                    ---                                        ---
   EVAPOTRANSPIRATION =        1497989.99     EVAPOTRANSPIRATION =           2461.12
           STREAMFLOW =        1158448.76             STREAMFLOW =          11904.49
     GW BOUNDARY FLOW =           4019.73       GW BOUNDARY FLOW =             35.74

   INFLOWS - OUTFLOWS =         -64064.99     INFLOWS - OUTFLOWS =         -14400.96
             --------                                   --------

 TOTAL STORAGE CHANGE =         -86525.96         STORAGE CHANGE =         -14400.10
       --------------                             --------------
         LAND SURFACE =         356897.60           LAND SURFACE =           -433.81
            SOIL ZONE =        1553612.17              SOIL ZONE =          -1970.51
     UNSATURATED ZONE =       -2680709.77       UNSATURATED ZONE =         -13124.04
       SATURATED ZONE =         683673.65         SATURATED ZONE =           1128.25

 OVERALL BUDGET ERROR =          22460.97           BUDGET ERROR =             -0.86


  PERCENT DISCREPANCY =              0.84    PERCENT DISCREPANCY =             -0.01



1
 SUMMARY VOLUMETRIC BUDGET FOR GSFLOW 
 DATE: 01 27 1991              CUMULATIVE TIME STEP:      27
 MODFLOW STRESS PERIOD      5     CURRENT TIME STEP:     119     ITERATIONS:       5

 -----------------------------------------------------------------------------------

   CUMULATIVE VOLUMES               L**3   RATES FOR THIS TIME STEP           L**3/T
   ------------------                      ------------------------

                                     IN                                         IN
                                     --                                         --
        PRECIPITATION =        2596386.94          PRECIPITATION =                  
           STREAMFLOW =                               STREAMFLOW =                  
     GW BOUNDARY FLOW =              9.65       GW BOUNDARY FLOW =              0.48


                                    OUT                                        OUT
                                    ---                                        ---
   EVAPOTRANSPIRATION =        1523886.94     EVAPOTRANSPIRATION =           1702.90
           STREAMFLOW =        1241722.02             STREAMFLOW =          11921.66
     GW BOUNDARY FLOW =           4269.90       GW BOUNDARY FLOW =             35.74

   INFLOWS - OUTFLOWS =        -173482.27     INFLOWS - OUTFLOWS =         -13659.82
             --------                                   --------

 TOTAL STORAGE CHANGE =        -196160.97         STORAGE CHANGE =         -13672.12
       --------------                             --------------
         LAND SURFACE =         323033.09           LAND SURFACE =           -547.84
            SOIL ZONE =        1562288.55              SOIL ZONE =          -1065.67
     UNSATURATED ZONE =       -2770637.39       UNSATURATED ZONE =         -12629.01
       SATURATED ZONE =         689154.34         SATURATED ZONE =            570.39

 OVERALL BUDGET ERROR =          22678.70           BUDGET ERROR =             12.30


  PERCENT DISCREPANCY =              0.82    PERCENT DISCREPANCY =              0.09



1
 SUMMARY VOLUMETRIC BUDGET FOR GSFLOW 
 DATE: 02 03 1991              CUMULATIVE TIME STEP:       3
 MODFLOW STRESS PERIOD      6     CURRENT TIME STEP:     126     ITERATIONS:       6

 -----------------------------------------------------------------------------------

   CUMULATIVE VOLUMES               L**3   RATES FOR THIS TIME STEP           L**3/T
   ------------------                      ------------------------

                                     IN                                         IN
                                     --                                         --
        PRECIPITATION =        3228422.31          PRECIPITATION =          30459.53
           STREAMFLOW =                               STREAMFLOW =                  
     GW BOUNDARY FLOW =             13.31       GW BOUNDARY FLOW =              0.55


                                    OUT                                        OUT
                                    ---                                        ---
   EVAPOTRANSPIRATION =        1630896.39     EVAPOTRANSPIRATION =          21403.89
           STREAMFLOW =        1326566.63             STREAMFLOW =          12247.69
     GW BOUNDARY FLOW =           4520.00       GW BOUNDARY FLOW =             35.74

   INFLOWS - OUTFLOWS =         266452.59     INFLOWS - OUTFLOWS =          -3227.23
             --------                                   --------

 TOTAL STORAGE CHANGE =         236801.68         STORAGE CHANGE =          -3507.64
       --------------                             --------------
         LAND SURFACE =         157683.43           LAND SURFACE =         -26376.35
            SOIL ZONE =        2246087.29              SOIL ZONE =          35065.55
     UNSATURATED ZONE =       -2857244.38       UNSATURATED ZONE =         -12195.59
       SATURATED ZONE =         690274.83         SATURATED ZONE =             -1.26

 OVERALL BUDGET ERROR =          29650.91           BUDGET ERROR =            280.41


  PERCENT DISCREPANCY =              0.92    PERCENT DISCREPANCY =              0.83



1
 SUMMARY VOLUMETRIC BUDGET FOR GSFLOW 
 DATE: 02 10 1991              CUMULATIVE TIME STEP:      10
 MODFLOW STRESS PERIOD      6     CURRENT TIME STEP:     133     ITERATIONS:       5

 -----------------------------------------------------------------------------------

   CUMULATIVE VOLUMES               L**3   RATES FOR THIS TIME STEP           L**3/T
   ------------------                      ------------------------

                                     IN                                         IN
                                     --                                         --
        PRECIPITATION =        3510173.01          PRECIPITATION =                  
           STREAMFLOW =                               STREAMFLOW =                  
     GW BOUNDARY FLOW =             17.48       GW BOUNDARY FLOW =              0.63


                                    OUT                                        OUT
                                    ---                                        ---
   EVAPOTRANSPIRATION =        1798672.64     EVAPOTRANSPIRATION =          25669.06
           STREAMFLOW =        1412775.91             STREAMFLOW =          12172.02
     GW BOUNDARY FLOW =           4770.09       GW BOUNDARY FLOW =             35.72

   INFLOWS - OUTFLOWS =         293971.86     INFLOWS - OUTFLOWS =         -37876.17
             --------                                   --------

 TOTAL STORAGE CHANGE =         261736.19         STORAGE CHANGE =         -37801.20
       --------------                             --------------
         LAND SURFACE =          75877.11           LAND SURFACE =          -8469.89
            SOIL ZONE =        2437817.05              SOIL ZONE =         -17129.41
     UNSATURATED ZONE =       -2940416.40       UNSATURATED ZONE =         -11689.11
       SATURATED ZONE =         688457.84         SATURATED ZONE =           -512.80

 OVERALL BUDGET ERROR =          32235.67           BUDGET ERROR =            -74.97


  PERCENT DISCREPANCY =              0.92    PERCENT DISCREPANCY =             -0.20



1
 SUMMARY VOLUMETRIC BUDGET FOR GSFLOW 
 DATE: 02 17 1991              CUMULATIVE TIME STEP:      17
 MODFLOW STRESS PERIOD      6     CURRENT TIME STEP:     140     ITERATIONS:       5

 -----------------------------------------------------------------------------------

   CUMULATIVE VOLUMES               L**3   RATES FOR THIS TIME STEP           L**3/T
   ------------------                      ------------------------

                                     IN                                         IN
                                     --                                         --
        PRECIPITATION =        3510173.01          PRECIPITATION =                  
           STREAMFLOW =                               STREAMFLOW =                  
     GW BOUNDARY FLOW =             22.15       GW BOUNDARY FLOW =              0.70


                                    OUT                                        OUT
                                    ---                                        ---
   EVAPOTRANSPIRATION =        2041731.54     EVAPOTRANSPIRATION =          23705.62
           STREAMFLOW =        1497533.61             STREAMFLOW =          12104.36
     GW BOUNDARY FLOW =           5020.02       GW BOUNDARY FLOW =             35.68

   INFLOWS - OUTFLOWS =         -34090.00     INFLOWS - OUTFLOWS =         -35844.96
             --------                                   --------

 TOTAL STORAGE CHANGE =         -65560.03         STORAGE CHANGE =         -35769.19
       --------------                             --------------
         LAND SURFACE =          17890.99           LAND SURFACE =          -1143.67
            SOIL ZONE =        2253955.68              SOIL ZONE =         -22482.12
     UNSATURATED ZONE =       -3020049.52       UNSATURATED ZONE =         -11094.14
       SATURATED ZONE =         682642.14         SATURATED ZONE =          -1049.28

 OVERALL BUDGET ERROR =          31470.03           BUDGET ERROR =            -75.77


  PERCENT DISCREPANCY =              0.88    PERCENT DISCREPANCY =             -0.21



1
 SUMMARY VOLUMETRIC BUDGET FOR GSFLOW 
 DATE: 02 24 1991              CUMULATIVE TIME STEP:      24
 MODFLOW STRESS PERIOD      6     CURRENT TIME STEP:     147     ITERATIONS:       5

 -----------------------------------------------------------------------------------

   CUMULATIVE VOLUMES               L**3   RATES FOR THIS TIME STEP           L**3/T
   ------------------                      ------------------------

                                     IN                                         IN
                                     --                                         --
        PRECIPITATION =        3510173.01          PRECIPITATION =                  
           STREAMFLOW =                               STREAMFLOW =                  
     GW BOUNDARY FLOW =             27.30       GW BOUNDARY FLOW =              0.76


                                    OUT                                        OUT
                                    ---                                        ---
   EVAPOTRANSPIRATION =        2255163.06     EVAPOTRANSPIRATION =          21630.86
           STREAMFLOW =        1581593.43             STREAMFLOW =          11972.64
     GW BOUNDARY FLOW =           5268.94       GW BOUNDARY FLOW =             35.48

   INFLOWS - OUTFLOWS =        -331825.11     INFLOWS - OUTFLOWS =         -33638.22
             --------                                   --------

 TOTAL STORAGE CHANGE =        -362598.35         STORAGE CHANGE =         -33565.67
       --------------                             --------------
         LAND SURFACE =           7435.72           LAND SURFACE =           -217.69
            SOIL ZONE =        2052982.79              SOIL ZONE =         -21048.50
     UNSATURATED ZONE =       -3096036.89       UNSATURATED ZONE =         -10678.13
       SATURATED ZONE =         673019.26         SATURATED ZONE =          -1621.36

 OVERALL BUDGET ERROR =          30773.24           BUDGET ERROR =            -72.55


  PERCENT DISCREPANCY =              0.80    PERCENT DISCREPANCY =             -0.22



1
 SUMMARY VOLUMETRIC BUDGET FOR GSFLOW 
 DATE: 03 03 1991              CUMULATIVE TIME STEP:       3
 MODFLOW STRESS PERIOD      7     CURRENT TIME STEP:     154     ITERATIONS:       5

 -----------------------------------------------------------------------------------

   CUMULATIVE VOLUMES               L**3   RATES FOR THIS TIME STEP           L**3/T
   ------------------                      ------------------------

                                     IN                                         IN
                                     --                                         --
        PRECIPITATION =        6220189.63          PRECIPITATION =        1243187.24
           STREAMFLOW =                               STREAMFLOW =                  
     GW BOUNDARY FLOW =             32.90       GW BOUNDARY FLOW =              0.83


                                    OUT                                        OUT
                                    ---                                        ---
   EVAPOTRANSPIRATION =        2407189.55     EVAPOTRANSPIRATION =           8441.91
           STREAMFLOW =        1665169.61             STREAMFLOW =          12336.93
     GW BOUNDARY FLOW =           5516.63       GW BOUNDARY FLOW =             35.34

   INFLOWS - OUTFLOWS =        2142346.75     INFLOWS - OUTFLOWS =        1222373.90
             --------                                   --------

 TOTAL STORAGE CHANGE =        2104545.35         STORAGE CHANGE =        1214895.17
       --------------                             --------------
         LAND SURFACE =        2352761.88           LAND SURFACE =         894135.84
            SOIL ZONE =        2262859.86              SOIL ZONE =         333412.31
     UNSATURATED ZONE =       -3168935.44       UNSATURATED ZONE =         -10271.76
       SATURATED ZONE =         657858.19         SATURATED ZONE =          -2381.24

 OVERALL BUDGET ERROR =          37801.40           BUDGET ERROR =           7478.73


  PERCENT DISCREPANCY =              0.61    PERCENT DISCREPANCY =              0.60



1
 SUMMARY VOLUMETRIC BUDGET FOR GSFLOW 
 DATE: 03 10 1991              CUMULATIVE TIME STEP:      10
 MODFLOW STRESS PERIOD      7     CURRENT TIME STEP:     161     ITERATIONS:       5

 -----------------------------------------------------------------------------------

   CUMULATIVE VOLUMES               L**3   RATES FOR THIS TIME STEP           L**3/T
   ------------------                      ------------------------

                                     IN                                         IN
                                     --                                         --
        PRECIPITATION =        8746030.42          PRECIPITATION =          32888.55
           STREAMFLOW =                               STREAMFLOW =                  
     GW BOUNDARY FLOW =             38.93       GW BOUNDARY FLOW =              0.89


                                    OUT                                        OUT
                                    ---                                        ---
   EVAPOTRANSPIRATION =        2480485.07     EVAPOTRANSPIRATION =           8863.45
           STREAMFLOW =        1848309.85             STREAMFLOW =          21779.97
     GW BOUNDARY FLOW =           5765.53       GW BOUNDARY FLOW =             35.44

   INFLOWS - OUTFLOWS =        4411508.91     INFLOWS - OUTFLOWS =           2210.58
             --------                                   --------

 TOTAL STORAGE CHANGE =        4341143.27         STORAGE CHANGE =           1116.14
       --------------                             --------------
         LAND SURFACE =        2523463.28           LAND SURFACE =         -14137.08
            SOIL ZONE =        4355873.25              SOIL ZONE =          18679.07
     UNSATURATED ZONE =       -3190643.07       UNSATURATED ZONE =          -2085.82
       SATURATED ZONE =         652448.75         SATURATED ZONE =          -1340.06

 OVERALL BUDGET ERROR =          70365.64           BUDGET ERROR =           1094.44

  ***WARNING, FLUX RATES OFF > 3%

  PERCENT DISCREPANCY =              0.81    PERCENT DISCREPANCY =              3.38



1
 SUMMARY VOLUMETRIC BUDGET FOR GSFLOW 
 DATE: 03 17 1991              CUMULATIVE TIME STEP:      17
 MODFLOW STRESS PERIOD      7     CURRENT TIME STEP:     168     ITERATIONS:       5

 -----------------------------------------------------------------------------------

   CUMULATIVE VOLUMES               L**3   RATES FOR THIS TIME STEP           L**3/T
   ------------------                      ------------------------

                                     IN                                         IN
                                     --                                         --
        PRECIPITATION =        9897129.71          PRECIPITATION =         157865.04
           STREAMFLOW =                               STREAMFLOW =                  
     GW BOUNDARY FLOW =             45.38       GW BOUNDARY FLOW =              0.95


                                    OUT                                        OUT
                                    ---                                        ---
   EVAPOTRANSPIRATION =        2508323.50     EVAPOTRANSPIRATION =           8079.62
           STREAMFLOW =        1988857.43             STREAMFLOW =          19449.78
     GW BOUNDARY FLOW =           6012.77       GW BOUNDARY FLOW =             35.24

   INFLOWS - OUTFLOWS =        5393981.39     INFLOWS - OUTFLOWS =         130301.35
             --------                                   --------

 TOTAL STORAGE CHANGE =        5322168.16         STORAGE CHANGE =         130123.66
       --------------                             --------------
         LAND SURFACE =        3672302.31           LAND SURFACE =         157496.61
            SOIL ZONE =        4218711.32              SOIL ZONE =         -22427.08
     UNSATURATED ZONE =       -3208745.18       UNSATURATED ZONE =          -2874.59
       SATURATED ZONE =         639898.44         SATURATED ZONE =          -2071.30

 OVERALL BUDGET ERROR =          71813.23           BUDGET ERROR =            177.68


  PERCENT DISCREPANCY =              0.73    PERCENT DISCREPANCY =              0.11



1
 SUMMARY VOLUMETRIC BUDGET FOR GSFLOW 
 DATE: 03 24 1991              CUMULATIVE TIME STEP:      24
 MODFLOW STRESS PERIOD      7     CURRENT TIME STEP:     175     ITERATIONS:       5

 -----------------------------------------------------------------------------------

   CUMULATIVE VOLUMES               L**3   RATES FOR THIS TIME STEP           L**3/T
   ------------------                      ------------------------

                                     IN                                         IN
                                     --                                         --
        PRECIPITATION =        1.1673D+07          PRECIPITATION =        1230031.83
           STREAMFLOW =                               STREAMFLOW =                  
     GW BOUNDARY FLOW =             52.23       GW BOUNDARY FLOW =              1.00


                                    OUT                                        OUT
                                    ---                                        ---
   EVAPOTRANSPIRATION =        2547148.88     EVAPOTRANSPIRATION =           4663.35
           STREAMFLOW =        2121056.51             STREAMFLOW =          18593.21
     GW BOUNDARY FLOW =           6258.81       GW BOUNDARY FLOW =             35.08

   INFLOWS - OUTFLOWS =        6998699.54     INFLOWS - OUTFLOWS =        1206741.20
             --------                                   --------

 TOTAL STORAGE CHANGE =        6924978.23         STORAGE CHANGE =        1206572.93
       --------------                             --------------
         LAND SURFACE =        5426161.22           LAND SURFACE =        1230031.83
            SOIL ZONE =        4107563.40              SOIL ZONE =         -17327.17
     UNSATURATED ZONE =       -3232408.77       UNSATURATED ZONE =          -3633.04
       SATURATED ZONE =         623660.89         SATURATED ZONE =          -2498.72

 OVERALL BUDGET ERROR =          73721.31           BUDGET ERROR =            168.28


  PERCENT DISCREPANCY =              0.63    PERCENT DISCREPANCY =              0.01



1
 SUMMARY VOLUMETRIC BUDGET FOR GSFLOW 
 DATE: 03 31 1991              CUMULATIVE TIME STEP:      31
 MODFLOW STRESS PERIOD      7     CURRENT TIME STEP:     182     ITERATIONS:       6

 -----------------------------------------------------------------------------------

   CUMULATIVE VOLUMES               L**3   RATES FOR THIS TIME STEP           L**3/T
   ------------------                      ------------------------

                                     IN                                         IN
                                     --                                         --
        PRECIPITATION =        1.2495D+07          PRECIPITATION =                  
           STREAMFLOW =                               STREAMFLOW =                  
     GW BOUNDARY FLOW =             59.47       GW BOUNDARY FLOW =              1.06


                                    OUT                                        OUT
                                    ---                                        ---
   EVAPOTRANSPIRATION =        2668910.85     EVAPOTRANSPIRATION =          48053.54
           STREAMFLOW =        2253224.58             STREAMFLOW =          21917.59
     GW BOUNDARY FLOW =           6503.87       GW BOUNDARY FLOW =             35.02

   INFLOWS - OUTFLOWS =        7566745.47     INFLOWS - OUTFLOWS =         -70005.09
             --------                                   --------

 TOTAL STORAGE CHANGE =        7487402.09         STORAGE CHANGE =         -72968.88
       --------------                             --------------
         LAND SURFACE =        5977198.26           LAND SURFACE =        -148137.48
            SOIL ZONE =        4162353.01              SOIL ZONE =          80468.59
     UNSATURATED ZONE =       -3257532.44       UNSATURATED ZONE =          -2599.02
       SATURATED ZONE =         605381.57         SATURATED ZONE =          -2701.00

 OVERALL BUDGET ERROR =          79343.37           BUDGET ERROR =           2963.79

  ***WARNING, FLUX RATES OFF > 3%

  PERCENT DISCREPANCY =              0.64    PERCENT DISCREPANCY =              4.15



1
 SUMMARY VOLUMETRIC BUDGET FOR GSFLOW 
 DATE: 04 07 1991              CUMULATIVE TIME STEP:       7
 MODFLOW STRESS PERIOD      8     CURRENT TIME STEP:     189     ITERATIONS:       7

 -----------------------------------------------------------------------------------

   CUMULATIVE VOLUMES               L**3   RATES FOR THIS TIME STEP           L**3/T
   ------------------                      ------------------------

                                     IN                                         IN
                                     --                                         --
        PRECIPITATION =        1.3018D+07          PRECIPITATION =                  
           STREAMFLOW =                               STREAMFLOW =                  
     GW BOUNDARY FLOW =             67.08       GW BOUNDARY FLOW =              1.11


                                    OUT                                        OUT
                                    ---                                        ---
   EVAPOTRANSPIRATION =        2977003.03     EVAPOTRANSPIRATION =          15960.30
           STREAMFLOW =        2564546.68             STREAMFLOW =          62034.45
     GW BOUNDARY FLOW =           6751.16       GW BOUNDARY FLOW =             35.58

   INFLOWS - OUTFLOWS =        7469502.95     INFLOWS - OUTFLOWS =         -78029.22
             --------                                   --------

 TOTAL STORAGE CHANGE =        7352923.07         STORAGE CHANGE =         -80748.75
       --------------                             --------------
         LAND SURFACE =        4335933.24           LAND SURFACE =         -73164.41
            SOIL ZONE =        5662798.61              SOIL ZONE =         -14534.30
     UNSATURATED ZONE =       -3235601.64       UNSATURATED ZONE =           9017.92
       SATURATED ZONE =         589790.90         SATURATED ZONE =          -2068.00

 OVERALL BUDGET ERROR =         116579.88           BUDGET ERROR =           2719.52

  ***WARNING, FLUX RATES OFF > 3%

  PERCENT DISCREPANCY =              0.90    PERCENT DISCREPANCY =              3.43



1
 SUMMARY VOLUMETRIC BUDGET FOR GSFLOW 
 DATE: 04 14 1991              CUMULATIVE TIME STEP:      14
 MODFLOW STRESS PERIOD      8     CURRENT TIME STEP:     196     ITERATIONS:       7

 -----------------------------------------------------------------------------------

   CUMULATIVE VOLUMES               L**3   RATES FOR THIS TIME STEP           L**3/T
   ------------------                      ------------------------

                                     IN                                         IN
                                     --                                         --
        PRECIPITATION =        1.3018D+07          PRECIPITATION =                  
           STREAMFLOW =                               STREAMFLOW =                  
     GW BOUNDARY FLOW =             75.01       GW BOUNDARY FLOW =              1.15


                                    OUT                                        OUT
                                    ---                                        ---
   EVAPOTRANSPIRATION =        3161113.86     EVAPOTRANSPIRATION =          42037.36
           STREAMFLOW =        3042742.41             STREAMFLOW =          72763.87
     GW BOUNDARY FLOW =           7000.28       GW BOUNDARY FLOW =             35.60

   INFLOWS - OUTFLOWS =        6806955.20     INFLOWS - OUTFLOWS =        -114835.67
             --------                                   --------

 TOTAL STORAGE CHANGE =        6667439.10         STORAGE CHANGE =        -119630.61
       --------------                             --------------
         LAND SURFACE =        3672284.11           LAND SURFACE =        -192335.10
            SOIL ZONE =        5595156.98              SOIL ZONE =          66546.35
     UNSATURATED ZONE =       -3176153.60       UNSATURATED ZONE =           7947.56
       SATURATED ZONE =         576149.32         SATURATED ZONE =          -1789.46

 OVERALL BUDGET ERROR =         139516.10           BUDGET ERROR =           4794.94

  ***WARNING, FLUX RATES OFF > 3%

  PERCENT DISCREPANCY =              1.08    PERCENT DISCREPANCY =              4.09



1
 SUMMARY VOLUMETRIC BUDGET FOR GSFLOW 
 DATE: 04 21 1991              CUMULATIVE TIME STEP:      21
 MODFLOW STRESS PERIOD      8     CURRENT TIME STEP:     203     ITERATIONS:       9

 -----------------------------------------------------------------------------------

   CUMULATIVE VOLUMES               L**3   RATES FOR THIS TIME STEP           L**3/T
   ------------------                      ------------------------

                                     IN                                         IN
                                     --                                         --
        PRECIPITATION =        1.3034D+07          PRECIPITATION =                  
           STREAMFLOW =                               STREAMFLOW =                  
     GW BOUNDARY FLOW =             83.24       GW BOUNDARY FLOW =              1.19


                                    OUT                                        OUT
                                    ---                                        ---
   EVAPOTRANSPIRATION =        3414748.51     EVAPOTRANSPIRATION =          46895.54
           STREAMFLOW =        3592639.79             STREAMFLOW =          89809.65
     GW BOUNDARY FLOW =           7249.58       GW BOUNDARY FLOW =             35.72

   INFLOWS - OUTFLOWS =        6019507.46     INFLOWS - OUTFLOWS =        -136739.72
             --------                                   --------

 TOTAL STORAGE CHANGE =        5849362.48         STORAGE CHANGE =        -141828.63
       --------------                             --------------
         LAND SURFACE =        2500870.94           LAND SURFACE =        -216968.59
            SOIL ZONE =        5899698.88              SOIL ZONE =          66399.34
     UNSATURATED ZONE =       -3115238.25       UNSATURATED ZONE =          10222.43
       SATURATED ZONE =         564028.27         SATURATED ZONE =          -1481.86

 OVERALL BUDGET ERROR =         170144.98           BUDGET ERROR =           5088.91

  ***WARNING, FLUX RATES OFF > 3%

  PERCENT DISCREPANCY =              1.31    PERCENT DISCREPANCY =              3.65



1
 SUMMARY VOLUMETRIC BUDGET FOR GSFLOW 
 DATE: 04 28 1991              CUMULATIVE TIME STEP:      28
 MODFLOW STRESS PERIOD      8     CURRENT TIME STEP:     210     ITERATIONS:       6

 -----------------------------------------------------------------------------------

   CUMULATIVE VOLUMES               L**3   RATES FOR THIS TIME STEP           L**3/T
   ------------------                      ------------------------

                                     IN                                         IN
                                     --                                         --
        PRECIPITATION =        1.3303D+07          PRECIPITATION =                  
           STREAMFLOW =                               STREAMFLOW =                  
     GW BOUNDARY FLOW =             91.74       GW BOUNDARY FLOW =              1.23


                                    OUT                                        OUT
                                    ---                                        ---
   EVAPOTRANSPIRATION =        3683169.62     EVAPOTRANSPIRATION =          58231.63
           STREAMFLOW =        4236286.90             STREAMFLOW =          91238.12
     GW BOUNDARY FLOW =           7499.43       GW BOUNDARY FLOW =             35.64

   INFLOWS - OUTFLOWS =        5376566.30     INFLOWS - OUTFLOWS =        -149504.16
             --------                                   --------

 TOTAL STORAGE CHANGE =        5174597.49         STORAGE CHANGE =        -153512.69
       --------------                             --------------
         LAND SURFACE =        1748447.64           LAND SURFACE =        -137153.52
            SOIL ZONE =        5912463.03              SOIL ZONE =         -25144.84
     UNSATURATED ZONE =       -3042122.65       UNSATURATED ZONE =           9914.93
       SATURATED ZONE =         555806.44         SATURATED ZONE =          -1129.32

 OVERALL BUDGET ERROR =         201968.81           BUDGET ERROR =           4008.53


  PERCENT DISCREPANCY =              1.53    PERCENT DISCREPANCY =              2.65



1
 SUMMARY VOLUMETRIC BUDGET FOR GSFLOW 
 DATE: 05 05 1991              CUMULATIVE TIME STEP:       5
 MODFLOW STRESS PERIOD      9     CURRENT TIME STEP:     217     ITERATIONS:     226

 -----------------------------------------------------------------------------------

   CUMULATIVE VOLUMES               L**3   RATES FOR THIS TIME STEP           L**3/T
   ------------------                      ------------------------

                                     IN                                         IN
                                     --                                         --
        PRECIPITATION =        1.3510D+07          PRECIPITATION =                  
           STREAMFLOW =                               STREAMFLOW =                  
     GW BOUNDARY FLOW =            100.51       GW BOUNDARY FLOW =              1.27


                                    OUT                                        OUT
                                    ---                                        ---
   EVAPOTRANSPIRATION =        4060695.06     EVAPOTRANSPIRATION =          90410.24
           STREAMFLOW =        4820445.88             STREAMFLOW =          83374.47
     GW BOUNDARY FLOW =           7747.76       GW BOUNDARY FLOW =             35.41

   INFLOWS - OUTFLOWS =        4620919.95     INFLOWS - OUTFLOWS =        -173818.85
             --------                                   --------

 TOTAL STORAGE CHANGE =        4394528.68         STORAGE CHANGE =        -177143.72
       --------------                             --------------
         LAND SURFACE =        1036420.07           LAND SURFACE =        -150153.36
            SOIL ZONE =        5789249.79              SOIL ZONE =         -35398.89
     UNSATURATED ZONE =       -2979725.94       UNSATURATED ZONE =           7624.81
       SATURATED ZONE =         548581.31         SATURATED ZONE =            783.66

 OVERALL BUDGET ERROR =         226391.27           BUDGET ERROR =           3324.87


  PERCENT DISCREPANCY =              1.69    PERCENT DISCREPANCY =              1.89



1
 SUMMARY VOLUMETRIC BUDGET FOR GSFLOW 
 DATE: 05 12 1991              CUMULATIVE TIME STEP:      12
 MODFLOW STRESS PERIOD      9     CURRENT TIME STEP:     224     ITERATIONS:       7

 -----------------------------------------------------------------------------------

   CUMULATIVE VOLUMES               L**3   RATES FOR THIS TIME STEP           L**3/T
   ------------------                      ------------------------

                                     IN                                         IN
                                     --                                         --
        PRECIPITATION =        1.4029D+07          PRECIPITATION =                  
           STREAMFLOW =                               STREAMFLOW =                  
     GW BOUNDARY FLOW =            109.54       GW BOUNDARY FLOW =              1.31


                                    OUT                                        OUT
                                    ---                                        ---
   EVAPOTRANSPIRATION =        4456304.81     EVAPOTRANSPIRATION =          68952.27
           STREAMFLOW =        5366655.30             STREAMFLOW =          81265.05
     GW BOUNDARY FLOW =           7994.39       GW BOUNDARY FLOW =             35.19

   INFLOWS - OUTFLOWS =        4198377.21     INFLOWS - OUTFLOWS =        -150251.21
             --------                                   --------

 TOTAL STORAGE CHANGE =        3947689.42         STORAGE CHANGE =        -153316.61
       --------------                             --------------
         LAND SURFACE =         579124.41           LAND SURFACE =        -205427.93
            SOIL ZONE =        5751153.54              SOIL ZONE =          45295.89
     UNSATURATED ZONE =       -2921144.44       UNSATURATED ZONE =           8318.17
       SATURATED ZONE =         538552.04         SATURATED ZONE =          -1502.80

 OVERALL BUDGET ERROR =         250687.78           BUDGET ERROR =           3065.40


  PERCENT DISCREPANCY =              1.80    PERCENT DISCREPANCY =              2.02



1
 SUMMARY VOLUMETRIC BUDGET FOR GSFLOW 
 DATE: 05 19 1991              CUMULATIVE TIME STEP:      19
 MODFLOW STRESS PERIOD      9     CURRENT TIME STEP:     231     ITERATIONS:       6

 -----------------------------------------------------------------------------------

   CUMULATIVE VOLUMES               L**3   RATES FOR THIS TIME STEP           L**3/T
   ------------------                      ------------------------

                                     IN                                         IN
                                     --                                         --
        PRECIPITATION =        1.4365D+07          PRECIPITATION =                  
           STREAMFLOW =                               STREAMFLOW =                  
     GW BOUNDARY FLOW =            118.85       GW BOUNDARY FLOW =              1.35


                                    OUT                                        OUT
                                    ---                                        ---
   EVAPOTRANSPIRATION =        4894965.51     EVAPOTRANSPIRATION =          20444.02
           STREAMFLOW =        5841713.83             STREAMFLOW =          60061.17
     GW BOUNDARY FLOW =           8238.84       GW BOUNDARY FLOW =             34.74

   INFLOWS - OUTFLOWS =        3620578.98     INFLOWS - OUTFLOWS =         -80538.58
             --------                                   --------

 TOTAL STORAGE CHANGE =        3352410.26         STORAGE CHANGE =         -82362.19
       --------------                             --------------
         LAND SURFACE =         228252.15           LAND SURFACE =         -22354.64
            SOIL ZONE =        5471799.41              SOIL ZONE =         -63712.96
     UNSATURATED ZONE =       -2875014.75       UNSATURATED ZONE =           5307.45
       SATURATED ZONE =         527369.12         SATURATED ZONE =          -1602.10

 OVERALL BUDGET ERROR =         268168.72           BUDGET ERROR =           1823.62


  PERCENT DISCREPANCY =              1.88    PERCENT DISCREPANCY =              2.24



1
 SUMMARY VOLUMETRIC BUDGET FOR GSFLOW 
 DATE: 05 26 1991              CUMULATIVE TIME STEP:      26
 MODFLOW STRESS PERIOD      9     CURRENT TIME STEP:     238     ITERATIONS:       6

 -----------------------------------------------------------------------------------

   CUMULATIVE VOLUMES               L**3   RATES FOR THIS TIME STEP           L**3/T
   ------------------                      ------------------------

                                     IN                                         IN
                                     --                                         --
        PRECIPITATION =        1.4426D+07          PRECIPITATION =                  
           STREAMFLOW =                               STREAMFLOW =                  
     GW BOUNDARY FLOW =            128.44       GW BOUNDARY FLOW =              1.39


                                    OUT                                        OUT
                                    ---                                        ---
   EVAPOTRANSPIRATION =        5579593.24     EVAPOTRANSPIRATION =          76899.63
           STREAMFLOW =        6183429.66             STREAMFLOW =          36203.93
     GW BOUNDARY FLOW =           8480.13       GW BOUNDARY FLOW =             34.19

   INFLOWS - OUTFLOWS =        2655123.02     INFLOWS - OUTFLOWS =        -113136.35
             --------                                   --------

 TOTAL STORAGE CHANGE =        2378523.19         STORAGE CHANGE =        -113818.65
       --------------                             --------------
         LAND SURFACE =          55233.90           LAND SURFACE =          -8157.37
            SOIL ZONE =        4665616.13              SOIL ZONE =        -103065.89
     UNSATURATED ZONE =       -2856644.44       UNSATURATED ZONE =           -400.75
       SATURATED ZONE =         514312.83         SATURATED ZONE =          -2194.70

 OVERALL BUDGET ERROR =         276599.82           BUDGET ERROR =            682.30


  PERCENT DISCREPANCY =              1.94    PERCENT DISCREPANCY =              0.60



1
 SUMMARY VOLUMETRIC BUDGET FOR GSFLOW 
 DATE: 06 02 1991              CUMULATIVE TIME STEP:       2
 MODFLOW STRESS PERIOD     10     CURRENT TIME STEP:     245     ITERATIONS:       6

 -----------------------------------------------------------------------------------

   CUMULATIVE VOLUMES               L**3   RATES FOR THIS TIME STEP           L**3/T
   ------------------                      ------------------------

                                     IN                                         IN
                                     --                                         --
        PRECIPITATION =        1.4671D+07          PRECIPITATION =                  
           STREAMFLOW =                               STREAMFLOW =                  
     GW BOUNDARY FLOW =            138.32       GW BOUNDARY FLOW =              1.43


                                    OUT                                        OUT
                                    ---                                        ---
   EVAPOTRANSPIRATION =        6168773.01     EVAPOTRANSPIRATION =         127565.49
           STREAMFLOW =        6404410.14             STREAMFLOW =          27764.84
     GW BOUNDARY FLOW =           8718.19       GW BOUNDARY FLOW =             33.87

   INFLOWS - OUTFLOWS =        2089211.78     INFLOWS - OUTFLOWS =        -155362.76
             --------                                   --------

 TOTAL STORAGE CHANGE =        1809004.29         STORAGE CHANGE =        -154677.93
       --------------                             --------------
         LAND SURFACE =          19760.70           LAND SURFACE =          -4094.13
            SOIL ZONE =        4164090.23              SOIL ZONE =        -144646.41
     UNSATURATED ZONE =       -2870954.57       UNSATURATED ZONE =          -2983.91
       SATURATED ZONE =         496102.72         SATURATED ZONE =          -2953.54

 OVERALL BUDGET ERROR =         280207.48           BUDGET ERROR =           -684.83


  PERCENT DISCREPANCY =              1.93    PERCENT DISCREPANCY =             -0.44



1
 SUMMARY VOLUMETRIC BUDGET FOR GSFLOW 
 DATE: 06 09 1991              CUMULATIVE TIME STEP:       9
 MODFLOW STRESS PERIOD     10     CURRENT TIME STEP:     252     ITERATIONS:       6

 -----------------------------------------------------------------------------------

   CUMULATIVE VOLUMES               L**3   RATES FOR THIS TIME STEP           L**3/T
   ------------------                      ------------------------

                                     IN                                         IN
                                     --                                         --
        PRECIPITATION =        1.4671D+07          PRECIPITATION =                  
           STREAMFLOW =                               STREAMFLOW =                  
     GW BOUNDARY FLOW =            148.50       GW BOUNDARY FLOW =              1.47


                                    OUT                                        OUT
                                    ---                                        ---
   EVAPOTRANSPIRATION =        6957252.41     EVAPOTRANSPIRATION =         172470.54
           STREAMFLOW =        6561026.87             STREAMFLOW =          19025.48
     GW BOUNDARY FLOW =           8953.80       GW BOUNDARY FLOW =             33.52

   INFLOWS - OUTFLOWS =        1143890.22     INFLOWS - OUTFLOWS =        -191528.06
             --------                                   --------

 TOTAL STORAGE CHANGE =         869190.07         STORAGE CHANGE =        -190068.30
       --------------                             --------------
         LAND SURFACE =           3957.39           LAND SURFACE =          -2186.13
            SOIL ZONE =        3298575.31              SOIL ZONE =        -177998.84
     UNSATURATED ZONE =       -2905126.05       UNSATURATED ZONE =          -5945.09
       SATURATED ZONE =         471777.75         SATURATED ZONE =          -3938.30

 OVERALL BUDGET ERROR =         274700.15           BUDGET ERROR =          -1459.77


  PERCENT DISCREPANCY =              1.89    PERCENT DISCREPANCY =             -0.77



1
 SUMMARY VOLUMETRIC BUDGET FOR GSFLOW 
 DATE: 06 16 1991              CUMULATIVE TIME STEP:      16
 MODFLOW STRESS PERIOD     10     CURRENT TIME STEP:     259     ITERATIONS:       6

 -----------------------------------------------------------------------------------

   CUMULATIVE VOLUMES               L**3   RATES FOR THIS TIME STEP           L**3/T
   ------------------                      ------------------------

                                     IN                                         IN
                                     --                                         --
        PRECIPITATION =        1.4671D+07          PRECIPITATION =                  
           STREAMFLOW =                               STREAMFLOW =                  
     GW BOUNDARY FLOW =            158.99       GW BOUNDARY FLOW =              1.52


                                    OUT                                        OUT
                                    ---                                        ---
   EVAPOTRANSPIRATION =        7973422.35     EVAPOTRANSPIRATION =         116834.57
           STREAMFLOW =        6663474.87             STREAMFLOW =          12615.52
     GW BOUNDARY FLOW =           9185.98       GW BOUNDARY FLOW =             33.07

   INFLOWS - OUTFLOWS =          25050.60     INFLOWS - OUTFLOWS =        -129481.64
             --------                                   --------

 TOTAL STORAGE CHANGE =        -241665.59         STORAGE CHANGE =        -128809.19
       --------------                             --------------
         LAND SURFACE =            106.65           LAND SURFACE =            -66.98
            SOIL ZONE =        2306038.69              SOIL ZONE =        -107543.44
     UNSATURATED ZONE =       -2986335.96       UNSATURATED ZONE =         -15535.76
       SATURATED ZONE =         438518.91         SATURATED ZONE =          -5663.07

 OVERALL BUDGET ERROR =         266716.19           BUDGET ERROR =           -672.45


  PERCENT DISCREPANCY =              1.80    PERCENT DISCREPANCY =             -0.52



1
 SUMMARY VOLUMETRIC BUDGET FOR GSFLOW 
 DATE: 06 23 1991              CUMULATIVE TIME STEP:      23
 MODFLOW STRESS PERIOD     10     CURRENT TIME STEP:     266     ITERATIONS:       7

 -----------------------------------------------------------------------------------

   CUMULATIVE VOLUMES               L**3   RATES FOR THIS TIME STEP           L**3/T
   ------------------                      ------------------------

                                     IN                                         IN
                                     --                                         --
        PRECIPITATION =        1.4671D+07          PRECIPITATION =                  
           STREAMFLOW =                               STREAMFLOW =                  
     GW BOUNDARY FLOW =            169.79       GW BOUNDARY FLOW =              1.56


                                    OUT                                        OUT
                                    ---                                        ---
   EVAPOTRANSPIRATION =        8514561.12     EVAPOTRANSPIRATION =          38631.97
           STREAMFLOW =        6745282.71             STREAMFLOW =          12007.01
     GW BOUNDARY FLOW =           9416.65       GW BOUNDARY FLOW =             32.91

   INFLOWS - OUTFLOWS =        -598115.89     INFLOWS - OUTFLOWS =         -50670.34
             --------                                   --------

 TOTAL STORAGE CHANGE =        -861562.64         STORAGE CHANGE =         -50433.67
       --------------                             --------------
         LAND SURFACE =             16.57           LAND SURFACE =             -3.65
            SOIL ZONE =        1839787.43              SOIL ZONE =         -31424.82
     UNSATURATED ZONE =       -3094564.81       UNSATURATED ZONE =         -12491.87
       SATURATED ZONE =         393191.62         SATURATED ZONE =          -6513.39

 OVERALL BUDGET ERROR =         263446.75           BUDGET ERROR =           -236.67


  PERCENT DISCREPANCY =              1.71    PERCENT DISCREPANCY =             -0.47



1
 SUMMARY VOLUMETRIC BUDGET FOR GSFLOW 
 DATE: 06 30 1991              CUMULATIVE TIME STEP:      30
 MODFLOW STRESS PERIOD     10     CURRENT TIME STEP:     273     ITERATIONS:       8

 -----------------------------------------------------------------------------------

[...]
                                    ---                                        ---
   EVAPOTRANSPIRATION =        7.2873D+07     EVAPOTRANSPIRATION =          72684.63
           STREAMFLOW =        6.9755D+07             STREAMFLOW =           7680.39
     GW BOUNDARY FLOW =          50938.91       GW BOUNDARY FLOW =             24.11

   INFLOWS - OUTFLOWS =       -9165093.50     INFLOWS - OUTFLOWS =         -80385.66
             --------                                   --------

 TOTAL STORAGE CHANGE =       -1.1981D+07         STORAGE CHANGE =         -80103.36
       --------------                             --------------
         LAND SURFACE =         179293.22           LAND SURFACE =         -11102.33
            SOIL ZONE =        1393179.96              SOIL ZONE =         -50506.71
     UNSATURATED ZONE =         -37262.90       UNSATURATED ZONE =         -11606.12
       SATURATED ZONE =       -1.3516D+07         SATURATED ZONE =          -6888.72

 OVERALL BUDGET ERROR =        2815606.36           BUDGET ERROR =           -282.30


  PERCENT DISCREPANCY =              1.95    PERCENT DISCREPANCY =             -0.35



1
 SUMMARY VOLUMETRIC BUDGET FOR GSFLOW 
 DATE: 09 03 1995              CUMULATIVE TIME STEP:       3
 MODFLOW STRESS PERIOD     61     CURRENT TIME STEP:    1799     ITERATIONS:       7

 -----------------------------------------------------------------------------------

   CUMULATIVE VOLUMES               L**3   RATES FOR THIS TIME STEP           L**3/T
   ------------------                      ------------------------

                                     IN                                         IN
                                     --                                         --
        PRECIPITATION =        1.3351D+08          PRECIPITATION =                  
           STREAMFLOW =                               STREAMFLOW =                  
     GW BOUNDARY FLOW =           5644.11       GW BOUNDARY FLOW =              3.56


                                    OUT                                        OUT
                                    ---                                        ---
   EVAPOTRANSPIRATION =        7.3352D+07     EVAPOTRANSPIRATION =          63178.74
           STREAMFLOW =        6.9804D+07             STREAMFLOW =           6727.57
     GW BOUNDARY FLOW =          51107.16       GW BOUNDARY FLOW =             23.98

   INFLOWS - OUTFLOWS =       -9693506.11     INFLOWS - OUTFLOWS =         -69926.73
             --------                                   --------

 TOTAL STORAGE CHANGE =       -1.2508D+07         STORAGE CHANGE =         -69912.73
       --------------                             --------------
         LAND SURFACE =         114525.52           LAND SURFACE =          -7766.54
            SOIL ZONE =        1060353.11              SOIL ZONE =         -43689.87
     UNSATURATED ZONE =        -113551.95       UNSATURATED ZONE =         -10667.24
       SATURATED ZONE =       -1.3570D+07         SATURATED ZONE =          -7789.59

 OVERALL BUDGET ERROR =        2814460.03           BUDGET ERROR =            -14.00


  PERCENT DISCREPANCY =              1.95    PERCENT DISCREPANCY =             -0.02



1
 SUMMARY VOLUMETRIC BUDGET FOR GSFLOW 
 DATE: 09 10 1995              CUMULATIVE TIME STEP:      10
 MODFLOW STRESS PERIOD     61     CURRENT TIME STEP:    1806     ITERATIONS:       7

 -----------------------------------------------------------------------------------

   CUMULATIVE VOLUMES               L**3   RATES FOR THIS TIME STEP           L**3/T
   ------------------                      ------------------------

                                     IN                                         IN
                                     --                                         --
        PRECIPITATION =        1.3351D+08          PRECIPITATION =                  
           STREAMFLOW =                               STREAMFLOW =                  
     GW BOUNDARY FLOW =           5669.40       GW BOUNDARY FLOW =              3.65


                                    OUT                                        OUT
                                    ---                                        ---
   EVAPOTRANSPIRATION =        7.3706D+07     EVAPOTRANSPIRATION =          47310.16
           STREAMFLOW =        6.9853D+07             STREAMFLOW =           6714.73
     GW BOUNDARY FLOW =          51275.16       GW BOUNDARY FLOW =             23.99

   INFLOWS - OUTFLOWS =       -1.0096D+07     INFLOWS - OUTFLOWS =         -54045.22
             --------                                   --------

 TOTAL STORAGE CHANGE =       -1.2910D+07         STORAGE CHANGE =         -54035.90
       --------------                             --------------
         LAND SURFACE =          75925.35           LAND SURFACE =          -4673.87
            SOIL ZONE =         819092.95              SOIL ZONE =         -31589.08
     UNSATURATED ZONE =        -184434.60       UNSATURATED ZONE =         -10238.39
       SATURATED ZONE =       -1.3621D+07         SATURATED ZONE =          -7535.08

 OVERALL BUDGET ERROR =        2814397.20           BUDGET ERROR =             -9.32


  PERCENT DISCREPANCY =              1.94    PERCENT DISCREPANCY =             -0.02



1
 SUMMARY VOLUMETRIC BUDGET FOR GSFLOW 
 DATE: 09 17 1995              CUMULATIVE TIME STEP:      17
 MODFLOW STRESS PERIOD     61     CURRENT TIME STEP:    1813     ITERATIONS:       7

 -----------------------------------------------------------------------------------

   CUMULATIVE VOLUMES               L**3   RATES FOR THIS TIME STEP           L**3/T
   ------------------                      ------------------------

                                     IN                                         IN
                                     --                                         --
        PRECIPITATION =        1.3351D+08          PRECIPITATION =                  
           STREAMFLOW =                               STREAMFLOW =                  
     GW BOUNDARY FLOW =           5695.30       GW BOUNDARY FLOW =              3.74


                                    OUT                                        OUT
                                    ---                                        ---
   EVAPOTRANSPIRATION =        7.4087D+07     EVAPOTRANSPIRATION =          43191.86
           STREAMFLOW =        6.9892D+07             STREAMFLOW =           5853.95
     GW BOUNDARY FLOW =          51442.35       GW BOUNDARY FLOW =             23.90

   INFLOWS - OUTFLOWS =       -1.0517D+07     INFLOWS - OUTFLOWS =         -49065.98
             --------                                   --------

 TOTAL STORAGE CHANGE =       -1.3331D+07         STORAGE CHANGE =         -49056.46
       --------------                             --------------
         LAND SURFACE =          44186.54           LAND SURFACE =          -3043.17
            SOIL ZONE =         573260.15              SOIL ZONE =         -26762.69
     UNSATURATED ZONE =        -259854.12       UNSATURATED ZONE =         -10449.01
       SATURATED ZONE =       -1.3689D+07         SATURATED ZONE =          -8802.10

 OVERALL BUDGET ERROR =        2814304.64           BUDGET ERROR =             -9.51


  PERCENT DISCREPANCY =              1.94    PERCENT DISCREPANCY =             -0.02



1
 SUMMARY VOLUMETRIC BUDGET FOR GSFLOW 
 DATE: 09 24 1995              CUMULATIVE TIME STEP:      24
 MODFLOW STRESS PERIOD     61     CURRENT TIME STEP:    1820     ITERATIONS:       7

 -----------------------------------------------------------------------------------

   CUMULATIVE VOLUMES               L**3   RATES FOR THIS TIME STEP           L**3/T
   ------------------                      ------------------------

                                     IN                                         IN
                                     --                                         --
        PRECIPITATION =        1.3351D+08          PRECIPITATION =                  
           STREAMFLOW =                               STREAMFLOW =                  
     GW BOUNDARY FLOW =           5721.80       GW BOUNDARY FLOW =              3.82


                                    OUT                                        OUT
                                    ---                                        ---
   EVAPOTRANSPIRATION =        7.4353D+07     EVAPOTRANSPIRATION =          27519.56
           STREAMFLOW =        6.9934D+07             STREAMFLOW =           6475.93
     GW BOUNDARY FLOW =          51609.67       GW BOUNDARY FLOW =             23.95

   INFLOWS - OUTFLOWS =       -1.0824D+07     INFLOWS - OUTFLOWS =         -34015.62
             --------                                   --------

 TOTAL STORAGE CHANGE =       -1.3638D+07         STORAGE CHANGE =         -34010.13
       --------------                             --------------
         LAND SURFACE =          28055.76           LAND SURFACE =          -1559.79
            SOIL ZONE =         416011.99              SOIL ZONE =         -15677.48
     UNSATURATED ZONE =        -330568.51       UNSATURATED ZONE =          -8994.39
       SATURATED ZONE =       -1.3752D+07         SATURATED ZONE =          -7778.98

 OVERALL BUDGET ERROR =        2814244.23           BUDGET ERROR =             -5.48


  PERCENT DISCREPANCY =              1.93    PERCENT DISCREPANCY =             -0.02



1
 SUMMARY VOLUMETRIC BUDGET FOR GSFLOW 
 DATE: 10 01 1995              CUMULATIVE TIME STEP:       1
 MODFLOW STRESS PERIOD     62     CURRENT TIME STEP:    1827     ITERATIONS:       6

 -----------------------------------------------------------------------------------

   CUMULATIVE VOLUMES               L**3   RATES FOR THIS TIME STEP           L**3/T
   ------------------                      ------------------------

                                     IN                                         IN
                                     --                                         --
        PRECIPITATION =        1.3351D+08          PRECIPITATION =                  
           STREAMFLOW =                               STREAMFLOW =                  
     GW BOUNDARY FLOW =           5748.87       GW BOUNDARY FLOW =              3.90


                                    OUT                                        OUT
                                    ---                                        ---
   EVAPOTRANSPIRATION =        7.4469D+07     EVAPOTRANSPIRATION =          16824.87
           STREAMFLOW =        6.9986D+07             STREAMFLOW =           7447.62
     GW BOUNDARY FLOW =          51777.87       GW BOUNDARY FLOW =             24.04

   INFLOWS - OUTFLOWS =       -1.0993D+07     INFLOWS - OUTFLOWS =         -24292.62
             --------                                   --------

 TOTAL STORAGE CHANGE =       -1.3807D+07         STORAGE CHANGE =         -24293.10
       --------------                             --------------
         LAND SURFACE =          22241.70           LAND SURFACE =           -699.89
            SOIL ZONE =         352616.32              SOIL ZONE =          -9279.47
     UNSATURATED ZONE =        -387122.34       UNSATURATED ZONE =          -7930.67
       SATURATED ZONE =       -1.3795D+07         SATURATED ZONE =          -6383.58

 OVERALL BUDGET ERROR =        2814238.77           BUDGET ERROR =              0.48


  PERCENT DISCREPANCY =              1.93    PERCENT DISCREPANCY =              0.00



1
 SUMMARY VOLUMETRIC BUDGET FOR GSFLOW 
 DATE: 10 08 1995              CUMULATIVE TIME STEP:       8
 MODFLOW STRESS PERIOD     62     CURRENT TIME STEP:    1834     ITERATIONS:       6

 -----------------------------------------------------------------------------------

   CUMULATIVE VOLUMES               L**3   RATES FOR THIS TIME STEP           L**3/T
   ------------------                      ------------------------

                                     IN                                         IN
                                     --                                         --
        PRECIPITATION =        1.3351D+08          PRECIPITATION =                  
           STREAMFLOW =                               STREAMFLOW =                  
     GW BOUNDARY FLOW =           5776.47       GW BOUNDARY FLOW =              3.97


                                    OUT                                        OUT
                                    ---                                        ---
   EVAPOTRANSPIRATION =        7.4593D+07     EVAPOTRANSPIRATION =          15523.14
           STREAMFLOW =        7.0036D+07             STREAMFLOW =           7349.10
     GW BOUNDARY FLOW =          51946.02       GW BOUNDARY FLOW =             24.03

   INFLOWS - OUTFLOWS =       -1.1167D+07     INFLOWS - OUTFLOWS =         -22892.30
             --------                                   --------

 TOTAL STORAGE CHANGE =       -1.3981D+07         STORAGE CHANGE =         -22891.92
       --------------                             --------------
         LAND SURFACE =          18179.46           LAND SURFACE =           -628.45
            SOIL ZONE =         284761.05              SOIL ZONE =          -8224.78
     UNSATURATED ZONE =        -441163.67       UNSATURATED ZONE =          -7332.63
       SATURATED ZONE =       -1.3843D+07         SATURATED ZONE =          -6706.57

 OVERALL BUDGET ERROR =        2814226.43           BUDGET ERROR =             -0.39


  PERCENT DISCREPANCY =              1.93    PERCENT DISCREPANCY =             -0.00



1
 SUMMARY VOLUMETRIC BUDGET FOR GSFLOW 
 DATE: 10 15 1995              CUMULATIVE TIME STEP:      15
 MODFLOW STRESS PERIOD     62     CURRENT TIME STEP:    1841     ITERATIONS:       5

 -----------------------------------------------------------------------------------

   CUMULATIVE VOLUMES               L**3   RATES FOR THIS TIME STEP           L**3/T
   ------------------                      ------------------------

                                     IN                                         IN
                                     --                                         --
        PRECIPITATION =        1.3351D+08          PRECIPITATION =                  
           STREAMFLOW =                               STREAMFLOW =                  
     GW BOUNDARY FLOW =           5804.56       GW BOUNDARY FLOW =              4.04


                                    OUT                                        OUT
                                    ---                                        ---
   EVAPOTRANSPIRATION =        7.4709D+07     EVAPOTRANSPIRATION =          18122.82
           STREAMFLOW =        7.0086D+07             STREAMFLOW =           6938.07
     GW BOUNDARY FLOW =          52114.13       GW BOUNDARY FLOW =             24.00

   INFLOWS - OUTFLOWS =       -1.1333D+07     INFLOWS - OUTFLOWS =         -25080.86
             --------                                   --------

 TOTAL STORAGE CHANGE =       -1.4147D+07         STORAGE CHANGE =         -25080.00
       --------------                             --------------
         LAND SURFACE =          14037.99           LAND SURFACE =           -696.58
            SOIL ZONE =         223628.67              SOIL ZONE =          -9343.41
     UNSATURATED ZONE =        -490304.39       UNSATURATED ZONE =          -6933.00
       SATURATED ZONE =       -1.3895D+07         SATURATED ZONE =          -8107.52

 OVERALL BUDGET ERROR =        2814208.08           BUDGET ERROR =             -0.86


  PERCENT DISCREPANCY =              1.92    PERCENT DISCREPANCY =             -0.00



1
 SUMMARY VOLUMETRIC BUDGET FOR GSFLOW 
 DATE: 10 22 1995              CUMULATIVE TIME STEP:      22
 MODFLOW STRESS PERIOD     62     CURRENT TIME STEP:    1848     ITERATIONS:      13

 -----------------------------------------------------------------------------------

   CUMULATIVE VOLUMES               L**3   RATES FOR THIS TIME STEP           L**3/T
   ------------------                      ------------------------

                                     IN                                         IN
                                     --                                         --
        PRECIPITATION =        1.3351D+08          PRECIPITATION =                  
           STREAMFLOW =                               STREAMFLOW =                  
     GW BOUNDARY FLOW =           5833.11       GW BOUNDARY FLOW =              4.10


                                    OUT                                        OUT
                                    ---                                        ---
   EVAPOTRANSPIRATION =        7.4813D+07     EVAPOTRANSPIRATION =           4714.52
           STREAMFLOW =        7.0136D+07             STREAMFLOW =           8099.23
     GW BOUNDARY FLOW =          52282.28       GW BOUNDARY FLOW =             24.11

   INFLOWS - OUTFLOWS =       -1.1487D+07     INFLOWS - OUTFLOWS =         -12833.76
             --------                                   --------

 TOTAL STORAGE CHANGE =       -1.4301D+07         STORAGE CHANGE =         -12835.23
       --------------                             --------------
         LAND SURFACE =          10452.80           LAND SURFACE =             -6.45
            SOIL ZONE =         172150.09              SOIL ZONE =          -2082.63
     UNSATURATED ZONE =        -535896.87       UNSATURATED ZONE =          -6050.35
       SATURATED ZONE =       -1.3948D+07         SATURATED ZONE =          -4696.31

 OVERALL BUDGET ERROR =        2814191.64           BUDGET ERROR =              1.47


  PERCENT DISCREPANCY =              1.92    PERCENT DISCREPANCY =              0.01



1
 SUMMARY VOLUMETRIC BUDGET FOR GSFLOW 
 DATE: 10 29 1995              CUMULATIVE TIME STEP:      29
 MODFLOW STRESS PERIOD     62     CURRENT TIME STEP:    1855     ITERATIONS:       6

 -----------------------------------------------------------------------------------

   CUMULATIVE VOLUMES               L**3   RATES FOR THIS TIME STEP           L**3/T
   ------------------                      ------------------------

                                     IN                                         IN
                                     --                                         --
        PRECIPITATION =        1.3351D+08          PRECIPITATION =                  
           STREAMFLOW =                               STREAMFLOW =                  
     GW BOUNDARY FLOW =           5862.08       GW BOUNDARY FLOW =              4.17


                                    OUT                                        OUT
                                    ---                                        ---
   EVAPOTRANSPIRATION =        7.4878D+07     EVAPOTRANSPIRATION =          11353.06
           STREAMFLOW =        7.0190D+07             STREAMFLOW =           7442.51
     GW BOUNDARY FLOW =          52450.84       GW BOUNDARY FLOW =             24.06

   INFLOWS - OUTFLOWS =       -1.1607D+07     INFLOWS - OUTFLOWS =         -18815.47
             --------                                   --------

 TOTAL STORAGE CHANGE =       -1.4421D+07         STORAGE CHANGE =         -18814.95
       --------------                             --------------
         LAND SURFACE =           9254.99           LAND SURFACE =           -359.13
            SOIL ZONE =         141833.77              SOIL ZONE =          -5080.87
     UNSATURATED ZONE =        -579080.88       UNSATURATED ZONE =          -6167.78
       SATURATED ZONE =       -1.3994D+07         SATURATED ZONE =          -7207.68

 OVERALL BUDGET ERROR =        2814190.62           BUDGET ERROR =             -0.52


  PERCENT DISCREPANCY =              1.92    PERCENT DISCREPANCY =             -0.00



