1
 SUMMARY VOLUMETRIC BUDGET FOR GSFLOW 
 DATE: 10 07 1990              CUMULATIVE TIME STEP:       7
 MODFLOW STRESS PERIOD      2     CURRENT TIME STEP:       7     ITERATIONS:       7

 -----------------------------------------------------------------------------------

   CUMULATIVE VOLUMES               L**3   RATES FOR THIS TIME STEP           L**3/T
   ------------------                      ------------------------

                                     IN                                         IN
                                     --                                         --
        PRECIPITATION =                            PRECIPITATION =                  
           STREAMFLOW =                               STREAMFLOW =                  
     GW BOUNDARY FLOW =                         GW BOUNDARY FLOW =                  


                                    OUT                                        OUT
                                    ---                                        ---
   EVAPOTRANSPIRATION =         385017.45     EVAPOTRANSPIRATION =          11800.90
           STREAMFLOW =          45655.16             STREAMFLOW =           8128.06
     GW BOUNDARY FLOW =            252.78       GW BOUNDARY FLOW =             36.30

   INFLOWS - OUTFLOWS =        -430925.39     INFLOWS - OUTFLOWS =         -19965.26
             --------                                   --------

 TOTAL STORAGE CHANGE =        -429458.71         STORAGE CHANGE =         -19940.97
       --------------                             --------------
         LAND SURFACE =                             LAND SURFACE =                  
            SOIL ZONE =         -33378.24              SOIL ZONE =           -943.72
     UNSATURATED ZONE =        -502849.10       UNSATURATED ZONE =         -33588.96
       SATURATED ZONE =         106768.62         SATURATED ZONE =          14591.71

 OVERALL BUDGET ERROR =          -1466.68           BUDGET ERROR =            -24.29


  PERCENT DISCREPANCY =             -0.34    PERCENT DISCREPANCY =             -0.12



1
 SUMMARY VOLUMETRIC BUDGET FOR GSFLOW 
 DATE: 10 14 1990              CUMULATIVE TIME STEP:      14
 MODFLOW STRESS PERIOD      2     CURRENT TIME STEP:      14     ITERATIONS:       6

 -----------------------------------------------------------------------------------

   CUMULATIVE VOLUMES               L**3   RATES FOR THIS TIME STEP           L**3/T
   ------------------                      ------------------------

                                     IN                                         IN
                                     --                                         --
        PRECIPITATION =                            PRECIPITATION =                  
           STREAMFLOW =                               STREAMFLOW =                  
     GW BOUNDARY FLOW =                         GW BOUNDARY FLOW =                  


                                    OUT                                        OUT
                                    ---                                        ---
   EVAPOTRANSPIRATION =         665207.98     EVAPOTRANSPIRATION =          42295.86
           STREAMFLOW =         100358.14             STREAMFLOW =           7412.25
     GW BOUNDARY FLOW =            506.61       GW BOUNDARY FLOW =             36.24

   INFLOWS - OUTFLOWS =        -766072.73     INFLOWS - OUTFLOWS =         -49744.35
             --------                                   --------

 TOTAL STORAGE CHANGE =        -764337.56         STORAGE CHANGE =         -49725.86
       --------------                             --------------
         LAND SURFACE =                             LAND SURFACE =                  
            SOIL ZONE =         -58187.22              SOIL ZONE =          -4381.89
     UNSATURATED ZONE =        -877882.63       UNSATURATED ZONE =         -52087.30
       SATURATED ZONE =         171732.29         SATURATED ZONE =           6743.33

 OVERALL BUDGET ERROR =          -1735.17           BUDGET ERROR =            -18.49


  PERCENT DISCREPANCY =             -0.23    PERCENT DISCREPANCY =             -0.04



1
 SUMMARY VOLUMETRIC BUDGET FOR GSFLOW 
 DATE: 10 21 1990              CUMULATIVE TIME STEP:      21
 MODFLOW STRESS PERIOD      2     CURRENT TIME STEP:      21     ITERATIONS:       6

 -----------------------------------------------------------------------------------

   CUMULATIVE VOLUMES               L**3   RATES FOR THIS TIME STEP           L**3/T
   ------------------                      ------------------------

                                     IN                                         IN
                                     --                                         --
        PRECIPITATION =         188432.87          PRECIPITATION =                  
           STREAMFLOW =                               STREAMFLOW =                  
     GW BOUNDARY FLOW =                         GW BOUNDARY FLOW =                  


                                    OUT                                        OUT
                                    ---                                        ---
   EVAPOTRANSPIRATION =         815186.85     EVAPOTRANSPIRATION =          41469.37
           STREAMFLOW =         163118.91             STREAMFLOW =          10148.50
     GW BOUNDARY FLOW =            760.80       GW BOUNDARY FLOW =             36.37

   INFLOWS - OUTFLOWS =        -790633.69     INFLOWS - OUTFLOWS =         -51654.25
             --------                                   --------

 TOTAL STORAGE CHANGE =        -790112.68         STORAGE CHANGE =         -51662.47
       --------------                             --------------
         LAND SURFACE =          18885.57           LAND SURFACE =         -43558.49
            SOIL ZONE =          47730.35              SOIL ZONE =           2342.79
     UNSATURATED ZONE =       -1091727.35       UNSATURATED ZONE =         -21395.20
       SATURATED ZONE =         234998.75         SATURATED ZONE =          10948.43

 OVERALL BUDGET ERROR =           -521.01           BUDGET ERROR =              8.22


  PERCENT DISCREPANCY =             -0.05    PERCENT DISCREPANCY =              0.02



1
 SUMMARY VOLUMETRIC BUDGET FOR GSFLOW 
 DATE: 10 28 1990              CUMULATIVE TIME STEP:      28
 MODFLOW STRESS PERIOD      2     CURRENT TIME STEP:      28     ITERATIONS:       6

 -----------------------------------------------------------------------------------

   CUMULATIVE VOLUMES               L**3   RATES FOR THIS TIME STEP           L**3/T
   ------------------                      ------------------------

                                     IN                                         IN
                                     --                                         --
        PRECIPITATION =         188432.87          PRECIPITATION =                  
           STREAMFLOW =                               STREAMFLOW =                  
     GW BOUNDARY FLOW =                         GW BOUNDARY FLOW =                  


                                    OUT                                        OUT
                                    ---                                        ---
   EVAPOTRANSPIRATION =         942684.89     EVAPOTRANSPIRATION =          11819.64
           STREAMFLOW =         224491.92             STREAMFLOW =           8919.88
     GW BOUNDARY FLOW =           1013.98       GW BOUNDARY FLOW =             36.12

   INFLOWS - OUTFLOWS =        -979757.92     INFLOWS - OUTFLOWS =         -20775.64
             --------                                   --------

 TOTAL STORAGE CHANGE =        -979225.75         STORAGE CHANGE =         -20776.07
       --------------                             --------------
         LAND SURFACE =                             LAND SURFACE =                  
            SOIL ZONE =          19811.43              SOIL ZONE =          -3445.38
     UNSATURATED ZONE =       -1275171.13       UNSATURATED ZONE =         -23216.53
       SATURATED ZONE =         276133.94         SATURATED ZONE =           5885.84

 OVERALL BUDGET ERROR =           -532.17           BUDGET ERROR =              0.43


  PERCENT DISCREPANCY =             -0.05    PERCENT DISCREPANCY =              0.00



1
 SUMMARY VOLUMETRIC BUDGET FOR GSFLOW 
 DATE: 11 04 1990              CUMULATIVE TIME STEP:       4
 MODFLOW STRESS PERIOD      3     CURRENT TIME STEP:      35     ITERATIONS:       6

 -----------------------------------------------------------------------------------

   CUMULATIVE VOLUMES               L**3   RATES FOR THIS TIME STEP           L**3/T
   ------------------                      ------------------------

                                     IN                                         IN
                                     --                                         --
        PRECIPITATION =         703113.06          PRECIPITATION =                  
           STREAMFLOW =                               STREAMFLOW =                  
     GW BOUNDARY FLOW =                         GW BOUNDARY FLOW =                  


                                    OUT                                        OUT
                                    ---                                        ---
   EVAPOTRANSPIRATION =        1002995.02     EVAPOTRANSPIRATION =          26049.14
           STREAMFLOW =         295051.75             STREAMFLOW =          10627.55
     GW BOUNDARY FLOW =           1267.02       GW BOUNDARY FLOW =             36.13

   INFLOWS - OUTFLOWS =        -596200.72     INFLOWS - OUTFLOWS =         -36712.82
             --------                                   --------

 TOTAL STORAGE CHANGE =        -600675.85         STORAGE CHANGE =         -37957.79
       --------------                             --------------
         LAND SURFACE =         132159.65           LAND SURFACE =        -160480.33
            SOIL ZONE =         351892.61              SOIL ZONE =         133198.17
     UNSATURATED ZONE =       -1420606.85       UNSATURATED ZONE =         -20036.57
       SATURATED ZONE =         335878.72         SATURATED ZONE =           9360.94

 OVERALL BUDGET ERROR =           4475.12           BUDGET ERROR =           1244.97

  ***WARNING, FLUX RATES OFF > 3%

  PERCENT DISCREPANCY =              0.34    PERCENT DISCREPANCY =              3.33



1
 SUMMARY VOLUMETRIC BUDGET FOR GSFLOW 
 DATE: 11 11 1990              CUMULATIVE TIME STEP:      11
 MODFLOW STRESS PERIOD      3     CURRENT TIME STEP:      42     ITERATIONS:       6

 -----------------------------------------------------------------------------------

   CUMULATIVE VOLUMES               L**3   RATES FOR THIS TIME STEP           L**3/T
   ------------------                      ------------------------

                                     IN                                         IN
                                     --                                         --
        PRECIPITATION =         703113.06          PRECIPITATION =                  
           STREAMFLOW =                               STREAMFLOW =                  
     GW BOUNDARY FLOW =                         GW BOUNDARY FLOW =                  


                                    OUT                                        OUT
                                    ---                                        ---
   EVAPOTRANSPIRATION =        1079048.25     EVAPOTRANSPIRATION =          12189.04
           STREAMFLOW =         366202.22             STREAMFLOW =           9665.49
     GW BOUNDARY FLOW =           1519.13       GW BOUNDARY FLOW =             35.93

   INFLOWS - OUTFLOWS =        -743656.53     INFLOWS - OUTFLOWS =         -21890.46
             --------                                   --------

 TOTAL STORAGE CHANGE =        -748311.21         STORAGE CHANGE =         -21889.02
       --------------                             --------------
         LAND SURFACE =            595.09           LAND SURFACE =          -1416.54
            SOIL ZONE =         425102.81              SOIL ZONE =          -5588.56
     UNSATURATED ZONE =       -1559734.92       UNSATURATED ZONE =         -19830.74
       SATURATED ZONE =         385725.77         SATURATED ZONE =           4946.82

 OVERALL BUDGET ERROR =           4654.68           BUDGET ERROR =             -1.44


  PERCENT DISCREPANCY =              0.32    PERCENT DISCREPANCY =             -0.01



1
 SUMMARY VOLUMETRIC BUDGET FOR GSFLOW 
 DATE: 11 18 1990              CUMULATIVE TIME STEP:      18
 MODFLOW STRESS PERIOD      3     CURRENT TIME STEP:      49     ITERATIONS:       6

 -----------------------------------------------------------------------------------

   CUMULATIVE VOLUMES               L**3   RATES FOR THIS TIME STEP           L**3/T
   ------------------                      ------------------------

                                     IN                                         IN
                                     --                                         --
        PRECIPITATION =         747883.35          PRECIPITATION =                  
           STREAMFLOW =                               STREAMFLOW =                  
     GW BOUNDARY FLOW =                         GW BOUNDARY FLOW =                  


                                    OUT                                        OUT
                                    ---                                        ---
   EVAPOTRANSPIRATION =        1150642.50     EVAPOTRANSPIRATION =           4984.11
           STREAMFLOW =         437950.98             STREAMFLOW =          10675.34
     GW BOUNDARY FLOW =           1770.44       GW BOUNDARY FLOW =             35.88

   INFLOWS - OUTFLOWS =        -842480.57     INFLOWS - OUTFLOWS =         -15695.33
             --------                                   --------

 TOTAL STORAGE CHANGE =        -847171.63         STORAGE CHANGE =         -15706.32
       --------------                             --------------
         LAND SURFACE =           7868.08           LAND SURFACE =          -3691.47
            SOIL ZONE =         407855.18              SOIL ZONE =           -668.20
     UNSATURATED ZONE =       -1692836.69       UNSATURATED ZONE =         -18603.35
       SATURATED ZONE =         429941.75         SATURATED ZONE =           7256.70

 OVERALL BUDGET ERROR =           4691.07           BUDGET ERROR =             10.99


  PERCENT DISCREPANCY =              0.29    PERCENT DISCREPANCY =              0.07



1
 SUMMARY VOLUMETRIC BUDGET FOR GSFLOW 
 DATE: 11 25 1990              CUMULATIVE TIME STEP:      25
 MODFLOW STRESS PERIOD      3     CURRENT TIME STEP:      56     ITERATIONS:       6

 -----------------------------------------------------------------------------------

   CUMULATIVE VOLUMES               L**3   RATES FOR THIS TIME STEP           L**3/T
   ------------------                      ------------------------

                                     IN                                         IN
                                     --                                         --
        PRECIPITATION =        1009043.38          PRECIPITATION =         186542.88
           STREAMFLOW =                               STREAMFLOW =                  
     GW BOUNDARY FLOW =                         GW BOUNDARY FLOW =                  


                                    OUT                                        OUT
                                    ---                                        ---
   EVAPOTRANSPIRATION =        1210157.45     EVAPOTRANSPIRATION =           3750.87
           STREAMFLOW =         513965.53             STREAMFLOW =          10881.21
     GW BOUNDARY FLOW =           2021.38       GW BOUNDARY FLOW =             35.79

   INFLOWS - OUTFLOWS =        -717100.97     INFLOWS - OUTFLOWS =         171875.00
             --------                                   --------

 TOTAL STORAGE CHANGE =        -723938.67         STORAGE CHANGE =         170020.14
       --------------                             --------------
         LAND SURFACE =          86180.68           LAND SURFACE =          69567.13
            SOIL ZONE =         531012.79              SOIL ZONE =         112079.63
     UNSATURATED ZONE =       -1820389.77       UNSATURATED ZONE =         -17906.43
       SATURATED ZONE =         479257.56         SATURATED ZONE =           6279.81

 OVERALL BUDGET ERROR =           6837.70           BUDGET ERROR =           1854.86


  PERCENT DISCREPANCY =              0.40    PERCENT DISCREPANCY =              1.00



1
 SUMMARY VOLUMETRIC BUDGET FOR GSFLOW 
 DATE: 12 02 1990              CUMULATIVE TIME STEP:       2
 MODFLOW STRESS PERIOD      4     CURRENT TIME STEP:      63     ITERATIONS:       6

 -----------------------------------------------------------------------------------

   CUMULATIVE VOLUMES               L**3   RATES FOR THIS TIME STEP           L**3/T
   ------------------                      ------------------------

                                     IN                                         IN
                                     --                                         --
        PRECIPITATION =        1449284.55          PRECIPITATION =                  
           STREAMFLOW =                               STREAMFLOW =                  
     GW BOUNDARY FLOW =                         GW BOUNDARY FLOW =                  


                                    OUT                                        OUT
                                    ---                                        ---
   EVAPOTRANSPIRATION =        1216652.55     EVAPOTRANSPIRATION =            234.47
           STREAMFLOW =         591204.65             STREAMFLOW =          11079.49
     GW BOUNDARY FLOW =           2271.86       GW BOUNDARY FLOW =             35.77

   INFLOWS - OUTFLOWS =        -360844.51     INFLOWS - OUTFLOWS =         -11349.73
             --------                                   --------

 TOTAL STORAGE CHANGE =        -368801.36         STORAGE CHANGE =         -11362.47
       --------------                             --------------
         LAND SURFACE =         486845.62           LAND SURFACE =           -339.04
            SOIL ZONE =         563283.25              SOIL ZONE =            144.18
     UNSATURATED ZONE =       -1943231.98       UNSATURATED ZONE =         -17254.85
       SATURATED ZONE =         524301.66         SATURATED ZONE =           6087.24

 OVERALL BUDGET ERROR =           7956.86           BUDGET ERROR =             12.74


  PERCENT DISCREPANCY =              0.44    PERCENT DISCREPANCY =              0.11



1
 SUMMARY VOLUMETRIC BUDGET FOR GSFLOW 
 DATE: 12 09 1990              CUMULATIVE TIME STEP:       9
 MODFLOW STRESS PERIOD      4     CURRENT TIME STEP:      70     ITERATIONS:       6

 -----------------------------------------------------------------------------------

   CUMULATIVE VOLUMES               L**3   RATES FOR THIS TIME STEP           L**3/T
   ------------------                      ------------------------

                                     IN                                         IN
                                     --                                         --
        PRECIPITATION =        1449284.55          PRECIPITATION =                  
           STREAMFLOW =                               STREAMFLOW =                  
     GW BOUNDARY FLOW =                         GW BOUNDARY FLOW =                  


                                    OUT                                        OUT
                                    ---                                        ---
   EVAPOTRANSPIRATION =        1291102.25     EVAPOTRANSPIRATION =          13330.12
           STREAMFLOW =         668935.85             STREAMFLOW =          10899.75
     GW BOUNDARY FLOW =           2521.81       GW BOUNDARY FLOW =             35.64

   INFLOWS - OUTFLOWS =        -513275.35     INFLOWS - OUTFLOWS =         -24265.51
             --------                                   --------

 TOTAL STORAGE CHANGE =        -525688.51         STORAGE CHANGE =         -24387.64
       --------------                             --------------
         LAND SURFACE =          67215.41           LAND SURFACE =         -45889.70
            SOIL ZONE =         907428.47              SOIL ZONE =          34154.40
     UNSATURATED ZONE =       -2061009.65       UNSATURATED ZONE =         -16478.25
       SATURATED ZONE =         560677.14         SATURATED ZONE =           3825.90

 OVERALL BUDGET ERROR =          12413.16           BUDGET ERROR =            122.13


  PERCENT DISCREPANCY =              0.63    PERCENT DISCREPANCY =              0.50



1
 SUMMARY VOLUMETRIC BUDGET FOR GSFLOW 
 DATE: 12 16 1990              CUMULATIVE TIME STEP:      16
 MODFLOW STRESS PERIOD      4     CURRENT TIME STEP:      77     ITERATIONS:       5

 -----------------------------------------------------------------------------------

   CUMULATIVE VOLUMES               L**3   RATES FOR THIS TIME STEP           L**3/T
   ------------------                      ------------------------

                                     IN                                         IN
                                     --                                         --
        PRECIPITATION =        1804962.84          PRECIPITATION =                  
           STREAMFLOW =                               STREAMFLOW =                  
     GW BOUNDARY FLOW =                         GW BOUNDARY FLOW =                  


                                    OUT                                        OUT
                                    ---                                        ---
   EVAPOTRANSPIRATION =        1319020.78     EVAPOTRANSPIRATION =                  
           STREAMFLOW =         748653.86             STREAMFLOW =          11516.88
     GW BOUNDARY FLOW =           2771.23       GW BOUNDARY FLOW =             35.61

   INFLOWS - OUTFLOWS =        -265483.03     INFLOWS - OUTFLOWS =         -11552.49
             --------                                   --------

 TOTAL STORAGE CHANGE =        -280196.37         STORAGE CHANGE =         -11567.90
       --------------                             --------------
         LAND SURFACE =         252566.26           LAND SURFACE =                  
            SOIL ZONE =        1050216.42              SOIL ZONE =            -29.75
     UNSATURATED ZONE =       -2174337.73       UNSATURATED ZONE =         -15929.20
       SATURATED ZONE =         591358.52         SATURATED ZONE =           4391.03

 OVERALL BUDGET ERROR =          14713.35           BUDGET ERROR =             15.41


  PERCENT DISCREPANCY =              0.71    PERCENT DISCREPANCY =              0.13



1
 SUMMARY VOLUMETRIC BUDGET FOR GSFLOW 
 DATE: 12 23 1990              CUMULATIVE TIME STEP:      23
 MODFLOW STRESS PERIOD      4     CURRENT TIME STEP:      84     ITERATIONS:       6

 -----------------------------------------------------------------------------------

   CUMULATIVE VOLUMES               L**3   RATES FOR THIS TIME STEP           L**3/T
   ------------------                      ------------------------

                                     IN                                         IN
                                     --                                         --
        PRECIPITATION =        2276236.55          PRECIPITATION =                  
           STREAMFLOW =                               STREAMFLOW =                  
     GW BOUNDARY FLOW =              0.08       GW BOUNDARY FLOW =              0.04


                                    OUT                                        OUT
                                    ---                                        ---
   EVAPOTRANSPIRATION =        1320078.30     EVAPOTRANSPIRATION =                  
           STREAMFLOW =         829469.84             STREAMFLOW =          11565.80
     GW BOUNDARY FLOW =           3020.25       GW BOUNDARY FLOW =             35.57

   INFLOWS - OUTFLOWS =         123668.24     INFLOWS - OUTFLOWS =         -11601.33
             --------                                   --------

 TOTAL STORAGE CHANGE =         108862.16         STORAGE CHANGE =         -11613.36
       --------------                             --------------
         LAND SURFACE =         722784.34           LAND SURFACE =                  
            SOIL ZONE =        1050353.80              SOIL ZONE =             49.21
     UNSATURATED ZONE =       -2283535.53       UNSATURATED ZONE =         -15356.07
       SATURATED ZONE =         619259.36         SATURATED ZONE =           3693.50

 OVERALL BUDGET ERROR =          14806.08           BUDGET ERROR =             12.03


  PERCENT DISCREPANCY =              0.65    PERCENT DISCREPANCY =              0.10



1
 SUMMARY VOLUMETRIC BUDGET FOR GSFLOW 
 DATE: 12 30 1990              CUMULATIVE TIME STEP:      30
 MODFLOW STRESS PERIOD      4     CURRENT TIME STEP:      91     ITERATIONS:       5

 -----------------------------------------------------------------------------------

   CUMULATIVE VOLUMES               L**3   RATES FOR THIS TIME STEP           L**3/T
   ------------------                      ------------------------

                                     IN                                         IN
                                     --                                         --
        PRECIPITATION =        2276236.55          PRECIPITATION =                  
           STREAMFLOW =                               STREAMFLOW =                  
     GW BOUNDARY FLOW =              0.77       GW BOUNDARY FLOW =              0.14


                                    OUT                                        OUT
                                    ---                                        ---
   EVAPOTRANSPIRATION =        1320645.81     EVAPOTRANSPIRATION =                  
           STREAMFLOW =         910696.53             STREAMFLOW =          11636.60
     GW BOUNDARY FLOW =           3269.36       GW BOUNDARY FLOW =             35.60

   INFLOWS - OUTFLOWS =          41625.62     INFLOWS - OUTFLOWS =         -11672.06
             --------                                   --------

 TOTAL STORAGE CHANGE =          26743.46         STORAGE CHANGE =         -11682.09
       --------------                             --------------
         LAND SURFACE =         722216.94           LAND SURFACE =                  
            SOIL ZONE =        1050898.22              SOIL ZONE =             96.71
     UNSATURATED ZONE =       -2388822.22       UNSATURATED ZONE =         -14807.03
       SATURATED ZONE =         642450.29         SATURATED ZONE =           3028.21

 OVERALL BUDGET ERROR =          14882.16           BUDGET ERROR =             10.04


  PERCENT DISCREPANCY =              0.66    PERCENT DISCREPANCY =              0.09



1
 SUMMARY VOLUMETRIC BUDGET FOR GSFLOW 
 DATE: 01 06 1991              CUMULATIVE TIME STEP:       6
 MODFLOW STRESS PERIOD      5     CURRENT TIME STEP:      98     ITERATIONS:       5

 -----------------------------------------------------------------------------------

   CUMULATIVE VOLUMES               L**3   RATES FOR THIS TIME STEP           L**3/T
   ------------------                      ------------------------

                                     IN                                         IN
                                     --                                         --
        PRECIPITATION =        2276236.55          PRECIPITATION =                  
           STREAMFLOW =                               STREAMFLOW =                  
     GW BOUNDARY FLOW =              2.09       GW BOUNDARY FLOW =              0.22


                                    OUT                                        OUT
                                    ---                                        ---
   EVAPOTRANSPIRATION =        1347633.22     EVAPOTRANSPIRATION =           3177.07
           STREAMFLOW =         992598.96             STREAMFLOW =          11741.19
     GW BOUNDARY FLOW =           3519.23       GW BOUNDARY FLOW =             35.75

   INFLOWS - OUTFLOWS =         -67512.77     INFLOWS - OUTFLOWS =         -14953.79
             --------                                   --------

 TOTAL STORAGE CHANGE =         -84961.06         STORAGE CHANGE =         -15090.17
       --------------                             --------------
         LAND SURFACE =         592099.77           LAND SURFACE =          -8106.31
            SOIL ZONE =        1152178.50              SOIL ZONE =           4887.76
     UNSATURATED ZONE =       -2490162.73       UNSATURATED ZONE =         -14245.71
       SATURATED ZONE =         660923.13         SATURATED ZONE =           2374.09

 OVERALL BUDGET ERROR =          17448.29           BUDGET ERROR =            136.38


  PERCENT DISCREPANCY =              0.74    PERCENT DISCREPANCY =              0.91



1
 SUMMARY VOLUMETRIC BUDGET FOR GSFLOW 
 DATE: 01 13 1991              CUMULATIVE TIME STEP:      13
 MODFLOW STRESS PERIOD      5     CURRENT TIME STEP:     105     ITERATIONS:       6

 -----------------------------------------------------------------------------------

   CUMULATIVE VOLUMES               L**3   RATES FOR THIS TIME STEP           L**3/T
   ------------------                      ------------------------

                                     IN                                         IN
                                     --                                         --
        PRECIPITATION =        2596386.94          PRECIPITATION =          10327.43
           STREAMFLOW =                               STREAMFLOW =                  
     GW BOUNDARY FLOW =              4.02       GW BOUNDARY FLOW =              0.31


                                    OUT                                        OUT
                                    ---                                        ---
   EVAPOTRANSPIRATION =        1413528.15     EVAPOTRANSPIRATION =          17874.75
           STREAMFLOW =        1074903.19             STREAMFLOW =          11694.24
     GW BOUNDARY FLOW =           3769.45       GW BOUNDARY FLOW =             35.73

   INFLOWS - OUTFLOWS =         104190.17     INFLOWS - OUTFLOWS =         -19276.97
             --------                                   --------

 TOTAL STORAGE CHANGE =          81749.49         STORAGE CHANGE =         -20505.42
       --------------                             --------------
         LAND SURFACE =         529885.07           LAND SURFACE =        -135264.71
            SOIL ZONE =        1465654.96              SOIL ZONE =         127478.54
     UNSATURATED ZONE =       -2587416.36       UNSATURATED ZONE =         -13681.59
       SATURATED ZONE =         673625.49         SATURATED ZONE =            962.33

 OVERALL BUDGET ERROR =          22440.68           BUDGET ERROR =           1228.45

  ***WARNING, FLUX RATES OFF > 3%

  PERCENT DISCREPANCY =              0.87    PERCENT DISCREPANCY =              4.07



1
 SUMMARY VOLUMETRIC BUDGET FOR GSFLOW 
 DATE: 01 20 1991              CUMULATIVE TIME STEP:      20
 MODFLOW STRESS PERIOD      5     CURRENT TIME STEP:     112     ITERATIONS:       5

 -----------------------------------------------------------------------------------

   CUMULATIVE VOLUMES               L**3   RATES FOR THIS TIME STEP           L**3/T
   ------------------                      ------------------------

                                     IN                                         IN
                                     --                                         --
        PRECIPITATION =        2596386.94          PRECIPITATION =                  
           STREAMFLOW =                               STREAMFLOW =                  
     GW BOUNDARY FLOW =              6.55       GW BOUNDARY FLOW =              0.40


                                    OUT                                        OUT
                                    ---                                        ---
   EVAPOTRANSPIRATION =        1487983.70     EVAPOTRANSPIRATION =           2344.30
           STREAMFLOW =        1157956.41             STREAMFLOW =          11895.95
     GW BOUNDARY FLOW =           4019.70       GW BOUNDARY FLOW =             35.75

   INFLOWS - OUTFLOWS =         -53566.32     INFLOWS - OUTFLOWS =         -14275.60
             --------                                   --------

 TOTAL STORAGE CHANGE =         -77021.31         STORAGE CHANGE =         -14283.78
       --------------                             --------------
         LAND SURFACE =         356897.60           LAND SURFACE =           -433.81
            SOIL ZONE =        1564513.64              SOIL ZONE =          -1835.74
     UNSATURATED ZONE =       -2680764.56       UNSATURATED ZONE =         -13119.36
       SATURATED ZONE =         682331.61         SATURATED ZONE =           1105.12

 OVERALL BUDGET ERROR =          23454.99           BUDGET ERROR =              8.18


  PERCENT DISCREPANCY =              0.88    PERCENT DISCREPANCY =              0.06



1
 SUMMARY VOLUMETRIC BUDGET FOR GSFLOW 
 DATE: 01 27 1991              CUMULATIVE TIME STEP:      27
 MODFLOW STRESS PERIOD      5     CURRENT TIME STEP:     119     ITERATIONS:       5

 -----------------------------------------------------------------------------------

   CUMULATIVE VOLUMES               L**3   RATES FOR THIS TIME STEP           L**3/T
   ------------------                      ------------------------

                                     IN                                         IN
                                     --                                         --
        PRECIPITATION =        2596386.94          PRECIPITATION =                  
           STREAMFLOW =                               STREAMFLOW =                  
     GW BOUNDARY FLOW =              9.65       GW BOUNDARY FLOW =              0.48


                                    OUT                                        OUT
                                    ---                                        ---
   EVAPOTRANSPIRATION =        1512609.59     EVAPOTRANSPIRATION =           1657.75
           STREAMFLOW =        1241196.09             STREAMFLOW =          11916.87
     GW BOUNDARY FLOW =           4269.90       GW BOUNDARY FLOW =             35.74

   INFLOWS - OUTFLOWS =        -161679.00     INFLOWS - OUTFLOWS =         -13609.88
             --------                                   --------

 TOTAL STORAGE CHANGE =        -185388.55         STORAGE CHANGE =         -13622.52
       --------------                             --------------
         LAND SURFACE =         323033.09           LAND SURFACE =           -547.84
            SOIL ZONE =        1574701.48              SOIL ZONE =          -1021.38
     UNSATURATED ZONE =       -2770664.94       UNSATURATED ZONE =         -12623.02
       SATURATED ZONE =         687541.38         SATURATED ZONE =            569.71

 OVERALL BUDGET ERROR =          23709.56           BUDGET ERROR =             12.64


  PERCENT DISCREPANCY =              0.86    PERCENT DISCREPANCY =              0.09



1
 SUMMARY VOLUMETRIC BUDGET FOR GSFLOW 
 DATE: 02 03 1991              CUMULATIVE TIME STEP:       3
 MODFLOW STRESS PERIOD      6     CURRENT TIME STEP:     126     ITERATIONS:       6

 -----------------------------------------------------------------------------------

   CUMULATIVE VOLUMES               L**3   RATES FOR THIS TIME STEP           L**3/T
   ------------------                      ------------------------

                                     IN                                         IN
                                     --                                         --
        PRECIPITATION =        3228422.31          PRECIPITATION =          30459.53
           STREAMFLOW =                               STREAMFLOW =                  
     GW BOUNDARY FLOW =             13.31       GW BOUNDARY FLOW =              0.55


                                    OUT                                        OUT
                                    ---                                        ---
   EVAPOTRANSPIRATION =        1615736.11     EVAPOTRANSPIRATION =          20932.55
           STREAMFLOW =        1326003.29             STREAMFLOW =          12214.23
     GW BOUNDARY FLOW =           4520.07       GW BOUNDARY FLOW =             35.74

   INFLOWS - OUTFLOWS =         282176.14     INFLOWS - OUTFLOWS =          -2722.42
             --------                                   --------

 TOTAL STORAGE CHANGE =         251437.36         STORAGE CHANGE =          -2999.65
       --------------                             --------------
         LAND SURFACE =         157683.43           LAND SURFACE =         -26376.35
            SOIL ZONE =        2263216.48              SOIL ZONE =          35688.52
     UNSATURATED ZONE =       -2857311.43       UNSATURATED ZONE =         -12213.27
       SATURATED ZONE =         687848.38         SATURATED ZONE =            -98.58

 OVERALL BUDGET ERROR =          30738.78           BUDGET ERROR =            277.23


  PERCENT DISCREPANCY =              0.96    PERCENT DISCREPANCY =              0.83



1
 SUMMARY VOLUMETRIC BUDGET FOR GSFLOW 
 DATE: 02 10 1991              CUMULATIVE TIME STEP:      10
 MODFLOW STRESS PERIOD      6     CURRENT TIME STEP:     133     ITERATIONS:       5

 -----------------------------------------------------------------------------------

   CUMULATIVE VOLUMES               L**3   RATES FOR THIS TIME STEP           L**3/T
   ------------------                      ------------------------

                                     IN                                         IN
                                     --                                         --
        PRECIPITATION =        3510173.01          PRECIPITATION =                  
           STREAMFLOW =                               STREAMFLOW =                  
     GW BOUNDARY FLOW =             17.48       GW BOUNDARY FLOW =              0.63


                                    OUT                                        OUT
                                    ---                                        ---
   EVAPOTRANSPIRATION =        1781948.07     EVAPOTRANSPIRATION =          25215.56
           STREAMFLOW =        1411857.72             STREAMFLOW =          12101.03
     GW BOUNDARY FLOW =           4770.15       GW BOUNDARY FLOW =             35.72

   INFLOWS - OUTFLOWS =         311614.56     INFLOWS - OUTFLOWS =         -37351.68
             --------                                   --------

 TOTAL STORAGE CHANGE =         277888.57         STORAGE CHANGE =         -37305.96
       --------------                             --------------
         LAND SURFACE =          75877.11           LAND SURFACE =          -8469.89
            SOIL ZONE =        2456605.16              SOIL ZONE =         -16556.62
     UNSATURATED ZONE =       -2940401.18       UNSATURATED ZONE =         -11694.78
       SATURATED ZONE =         685806.88         SATURATED ZONE =           -584.68

 OVERALL BUDGET ERROR =          33725.99           BUDGET ERROR =            -45.72


  PERCENT DISCREPANCY =              0.97    PERCENT DISCREPANCY =             -0.12



1
 SUMMARY VOLUMETRIC BUDGET FOR GSFLOW 
 DATE: 02 17 1991              CUMULATIVE TIME STEP:      17
 MODFLOW STRESS PERIOD      6     CURRENT TIME STEP:     140     ITERATIONS:       5

 -----------------------------------------------------------------------------------

   CUMULATIVE VOLUMES               L**3   RATES FOR THIS TIME STEP           L**3/T
   ------------------                      ------------------------

                                     IN                                         IN
                                     --                                         --
        PRECIPITATION =        3510173.01          PRECIPITATION =                  
           STREAMFLOW =                               STREAMFLOW =                  
     GW BOUNDARY FLOW =             22.16       GW BOUNDARY FLOW =              0.70


                                    OUT                                        OUT
                                    ---                                        ---
   EVAPOTRANSPIRATION =        2021752.15     EVAPOTRANSPIRATION =          23529.72
           STREAMFLOW =        1496089.39             STREAMFLOW =          12039.24
     GW BOUNDARY FLOW =           5020.07       GW BOUNDARY FLOW =             35.67

   INFLOWS - OUTFLOWS =         -12666.44     INFLOWS - OUTFLOWS =         -35603.94
             --------                                   --------

 TOTAL STORAGE CHANGE =         -45772.91         STORAGE CHANGE =         -35527.51
       --------------                             --------------
         LAND SURFACE =          17890.99           LAND SURFACE =          -1143.67
            SOIL ZONE =        2276880.27              SOIL ZONE =         -22239.09
     UNSATURATED ZONE =       -3019983.55       UNSATURATED ZONE =         -11055.85
       SATURATED ZONE =         679438.70         SATURATED ZONE =          -1088.91

 OVERALL BUDGET ERROR =          33106.47           BUDGET ERROR =            -76.43


  PERCENT DISCREPANCY =              0.94    PERCENT DISCREPANCY =             -0.21



1
 SUMMARY VOLUMETRIC BUDGET FOR GSFLOW 
 DATE: 02 24 1991              CUMULATIVE TIME STEP:      24
 MODFLOW STRESS PERIOD      6     CURRENT TIME STEP:     147     ITERATIONS:       5

 -----------------------------------------------------------------------------------

   CUMULATIVE VOLUMES               L**3   RATES FOR THIS TIME STEP           L**3/T
   ------------------                      ------------------------

                                     IN                                         IN
                                     --                                         --
        PRECIPITATION =        3510173.01          PRECIPITATION =                  
           STREAMFLOW =                               STREAMFLOW =                  
     GW BOUNDARY FLOW =             27.30       GW BOUNDARY FLOW =              0.76


                                    OUT                                        OUT
                                    ---                                        ---
   EVAPOTRANSPIRATION =        2234153.96     EVAPOTRANSPIRATION =          21575.24
           STREAMFLOW =        1580037.41             STREAMFLOW =          11993.26
     GW BOUNDARY FLOW =           5269.11       GW BOUNDARY FLOW =             35.51

   INFLOWS - OUTFLOWS =        -309260.17     INFLOWS - OUTFLOWS =         -33603.24
             --------                                   --------

 TOTAL STORAGE CHANGE =        -341659.76         STORAGE CHANGE =         -33529.22
       --------------                             --------------
         LAND SURFACE =           7435.72           LAND SURFACE =           -217.69
            SOIL ZONE =        2076983.80              SOIL ZONE =         -21069.67
     UNSATURATED ZONE =       -3095742.55       UNSATURATED ZONE =         -10654.26
       SATURATED ZONE =         669662.51         SATURATED ZONE =          -1587.60

 OVERALL BUDGET ERROR =          32399.58           BUDGET ERROR =            -74.02


  PERCENT DISCREPANCY =              0.84    PERCENT DISCREPANCY =             -0.22



1
 SUMMARY VOLUMETRIC BUDGET FOR GSFLOW 
 DATE: 03 03 1991              CUMULATIVE TIME STEP:       3
 MODFLOW STRESS PERIOD      7     CURRENT TIME STEP:     154     ITERATIONS:       5

 -----------------------------------------------------------------------------------

   CUMULATIVE VOLUMES               L**3   RATES FOR THIS TIME STEP           L**3/T
   ------------------                      ------------------------

                                     IN                                         IN
                                     --                                         --
        PRECIPITATION =        6220189.63          PRECIPITATION =        1243187.24
           STREAMFLOW =                               STREAMFLOW =                  
     GW BOUNDARY FLOW =             32.90       GW BOUNDARY FLOW =              0.83


                                    OUT                                        OUT
                                    ---                                        ---
   EVAPOTRANSPIRATION =        2386166.60     EVAPOTRANSPIRATION =           8437.19
           STREAMFLOW =        1663793.57             STREAMFLOW =          12293.60
     GW BOUNDARY FLOW =           5516.89       GW BOUNDARY FLOW =             35.34

   INFLOWS - OUTFLOWS =        2164745.48     INFLOWS - OUTFLOWS =        1222421.95
             --------                                   --------

 TOTAL STORAGE CHANGE =        2125319.72         STORAGE CHANGE =        1214934.93
       --------------                             --------------
         LAND SURFACE =        2352761.88           LAND SURFACE =         894135.84
            SOIL ZONE =        2285957.94              SOIL ZONE =         333432.52
     UNSATURATED ZONE =       -3168589.29       UNSATURATED ZONE =         -10250.92
       SATURATED ZONE =         655188.33         SATURATED ZONE =          -2382.53

 OVERALL BUDGET ERROR =          39425.75           BUDGET ERROR =           7487.02


  PERCENT DISCREPANCY =              0.64    PERCENT DISCREPANCY =              0.60



1
 SUMMARY VOLUMETRIC BUDGET FOR GSFLOW 
 DATE: 03 10 1991              CUMULATIVE TIME STEP:      10
 MODFLOW STRESS PERIOD      7     CURRENT TIME STEP:     161     ITERATIONS:       5

 -----------------------------------------------------------------------------------

   CUMULATIVE VOLUMES               L**3   RATES FOR THIS TIME STEP           L**3/T
   ------------------                      ------------------------

                                     IN                                         IN
                                     --                                         --
        PRECIPITATION =        8746030.42          PRECIPITATION =          32888.55
           STREAMFLOW =                               STREAMFLOW =                  
     GW BOUNDARY FLOW =             38.94       GW BOUNDARY FLOW =              0.89


                                    OUT                                        OUT
                                    ---                                        ---
   EVAPOTRANSPIRATION =        2459355.72     EVAPOTRANSPIRATION =           8863.48
           STREAMFLOW =        1793393.46             STREAMFLOW =          13079.10
     GW BOUNDARY FLOW =           5764.69       GW BOUNDARY FLOW =             35.25

   INFLOWS - OUTFLOWS =        4487555.49     INFLOWS - OUTFLOWS =          10911.62
             --------                                   --------

 TOTAL STORAGE CHANGE =        4417099.27         STORAGE CHANGE =          10074.64
       --------------                             --------------
         LAND SURFACE =        2523463.28           LAND SURFACE =         -14137.08
            SOIL ZONE =        4433783.10              SOIL ZONE =          27243.13
     UNSATURATED ZONE =       -3185470.27       UNSATURATED ZONE =          -1117.51
       SATURATED ZONE =         645322.10         SATURATED ZONE =          -1913.93

 OVERALL BUDGET ERROR =          70456.22           BUDGET ERROR =            836.98


  PERCENT DISCREPANCY =              0.81    PERCENT DISCREPANCY =              2.58



1
 SUMMARY VOLUMETRIC BUDGET FOR GSFLOW 
 DATE: 03 17 1991              CUMULATIVE TIME STEP:      17
 MODFLOW STRESS PERIOD      7     CURRENT TIME STEP:     168     ITERATIONS:       5

 -----------------------------------------------------------------------------------

   CUMULATIVE VOLUMES               L**3   RATES FOR THIS TIME STEP           L**3/T
   ------------------                      ------------------------

                                     IN                                         IN
                                     --                                         --
        PRECIPITATION =        9897129.71          PRECIPITATION =         157865.04
           STREAMFLOW =                               STREAMFLOW =                  
     GW BOUNDARY FLOW =             45.40       GW BOUNDARY FLOW =              0.95


                                    OUT                                        OUT
                                    ---                                        ---
   EVAPOTRANSPIRATION =        2487194.45     EVAPOTRANSPIRATION =           8079.74
           STREAMFLOW =        1882701.60             STREAMFLOW =          12602.38
     GW BOUNDARY FLOW =           6010.78       GW BOUNDARY FLOW =             35.09

   INFLOWS - OUTFLOWS =        5521268.28     INFLOWS - OUTFLOWS =         137148.79
             --------                                   --------

 TOTAL STORAGE CHANGE =        5450956.05         STORAGE CHANGE =         137189.07
       --------------                             --------------
         LAND SURFACE =        3672302.31           LAND SURFACE =         157496.61
            SOIL ZONE =        4343394.15              SOIL ZONE =         -16478.49
     UNSATURATED ZONE =       -3194418.60       UNSATURATED ZONE =          -1360.11
       SATURATED ZONE =         629676.92         SATURATED ZONE =          -2468.97

 OVERALL BUDGET ERROR =          70312.23           BUDGET ERROR =            -40.29


  PERCENT DISCREPANCY =              0.71    PERCENT DISCREPANCY =             -0.03



1
 SUMMARY VOLUMETRIC BUDGET FOR GSFLOW 
 DATE: 03 24 1991              CUMULATIVE TIME STEP:      24
 MODFLOW STRESS PERIOD      7     CURRENT TIME STEP:     175     ITERATIONS:       5

 -----------------------------------------------------------------------------------

   CUMULATIVE VOLUMES               L**3   RATES FOR THIS TIME STEP           L**3/T
   ------------------                      ------------------------

                                     IN                                         IN
                                     --                                         --
        PRECIPITATION =        1.1673D+07          PRECIPITATION =        1230031.83
           STREAMFLOW =                               STREAMFLOW =                  
     GW BOUNDARY FLOW =             52.27       GW BOUNDARY FLOW =              1.01


                                    OUT                                        OUT
                                    ---                                        ---
   EVAPOTRANSPIRATION =        2526008.47     EVAPOTRANSPIRATION =           4663.48
           STREAMFLOW =        1970358.97             STREAMFLOW =          12477.32
     GW BOUNDARY FLOW =           6255.82       GW BOUNDARY FLOW =             34.95

   INFLOWS - OUTFLOWS =        7170540.51     INFLOWS - OUTFLOWS =        1212857.10
             --------                                   --------

 TOTAL STORAGE CHANGE =        7099719.86         STORAGE CHANGE =        1212871.69
       --------------                             --------------
         LAND SURFACE =        5426161.22           LAND SURFACE =        1230031.83
            SOIL ZONE =        4268836.28              SOIL ZONE =         -12456.59
     UNSATURATED ZONE =       -3206250.34       UNSATURATED ZONE =          -1863.16
       SATURATED ZONE =         610971.22         SATURATED ZONE =          -2840.41

 OVERALL BUDGET ERROR =          70820.65           BUDGET ERROR =            -14.59


  PERCENT DISCREPANCY =              0.61    PERCENT DISCREPANCY =             -0.00



1
 SUMMARY VOLUMETRIC BUDGET FOR GSFLOW 
 DATE: 03 31 1991              CUMULATIVE TIME STEP:      31
 MODFLOW STRESS PERIOD      7     CURRENT TIME STEP:     182     ITERATIONS:       5

 -----------------------------------------------------------------------------------

   CUMULATIVE VOLUMES               L**3   RATES FOR THIS TIME STEP           L**3/T
   ------------------                      ------------------------

                                     IN                                         IN
                                     --                                         --
        PRECIPITATION =        1.2495D+07          PRECIPITATION =                  
           STREAMFLOW =                               STREAMFLOW =                  
     GW BOUNDARY FLOW =             59.53       GW BOUNDARY FLOW =              1.06


                                    OUT                                        OUT
                                    ---                                        ---
   EVAPOTRANSPIRATION =        2647385.84     EVAPOTRANSPIRATION =          47900.12
           STREAMFLOW =        2057618.89             STREAMFLOW =          12502.51
     GW BOUNDARY FLOW =           6499.90       GW BOUNDARY FLOW =             34.82

   INFLOWS - OUTFLOWS =        7783880.20     INFLOWS - OUTFLOWS =         -60436.38
             --------                                   --------

 TOTAL STORAGE CHANGE =        7708564.31         STORAGE CHANGE =         -63257.85
       --------------                             --------------
         LAND SURFACE =        5977198.26           LAND SURFACE =        -148137.48
            SOIL ZONE =        4360270.68              SOIL ZONE =          88426.00
     UNSATURATED ZONE =       -3218262.21       UNSATURATED ZONE =           -356.15
       SATURATED ZONE =         589355.88         SATURATED ZONE =          -3190.25

 OVERALL BUDGET ERROR =          75315.89           BUDGET ERROR =           2821.47

  ***WARNING, FLUX RATES OFF > 3%

  PERCENT DISCREPANCY =              0.60    PERCENT DISCREPANCY =              4.56



1
 SUMMARY VOLUMETRIC BUDGET FOR GSFLOW 
 DATE: 04 07 1991              CUMULATIVE TIME STEP:       7
 MODFLOW STRESS PERIOD      8     CURRENT TIME STEP:     189     ITERATIONS:       6

 -----------------------------------------------------------------------------------

   CUMULATIVE VOLUMES               L**3   RATES FOR THIS TIME STEP           L**3/T
   ------------------                      ------------------------

                                     IN                                         IN
                                     --                                         --
        PRECIPITATION =        1.3018D+07          PRECIPITATION =                  
           STREAMFLOW =                               STREAMFLOW =                  
     GW BOUNDARY FLOW =             67.18       GW BOUNDARY FLOW =              1.12


                                    OUT                                        OUT
                                    ---                                        ---
   EVAPOTRANSPIRATION =        2955109.91     EVAPOTRANSPIRATION =          15898.60
           STREAMFLOW =        2151322.28             STREAMFLOW =          14064.69
     GW BOUNDARY FLOW =           6743.39       GW BOUNDARY FLOW =             34.77

   INFLOWS - OUTFLOWS =        7904628.34     INFLOWS - OUTFLOWS =         -29996.95
             --------                                   --------

 TOTAL STORAGE CHANGE =        7798283.26         STORAGE CHANGE =         -31282.49
       --------------                             --------------
         LAND SURFACE =        4335933.24           LAND SURFACE =         -73164.41
            SOIL ZONE =        6065774.66              SOIL ZONE =          30445.26
     UNSATURATED ZONE =       -3172573.73       UNSATURATED ZONE =          13921.11
       SATURATED ZONE =         569147.14         SATURATED ZONE =          -2484.50

 OVERALL BUDGET ERROR =         106345.08           BUDGET ERROR =           1285.55

  ***WARNING, FLUX RATES OFF > 3%

  PERCENT DISCREPANCY =              0.82    PERCENT DISCREPANCY =              4.20



1
 SUMMARY VOLUMETRIC BUDGET FOR GSFLOW 
 DATE: 04 14 1991              CUMULATIVE TIME STEP:      14
 MODFLOW STRESS PERIOD      8     CURRENT TIME STEP:     196     ITERATIONS:       6

 -----------------------------------------------------------------------------------

   CUMULATIVE VOLUMES               L**3   RATES FOR THIS TIME STEP           L**3/T
   ------------------                      ------------------------

                                     IN                                         IN
                                     --                                         --
        PRECIPITATION =        1.3018D+07          PRECIPITATION =                  
           STREAMFLOW =                               STREAMFLOW =                  
     GW BOUNDARY FLOW =             75.20       GW BOUNDARY FLOW =              1.17


                                    OUT                                        OUT
                                    ---                                        ---
   EVAPOTRANSPIRATION =        3138935.33     EVAPOTRANSPIRATION =          42038.19
           STREAMFLOW =        2248113.27             STREAMFLOW =          13868.35
     GW BOUNDARY FLOW =           6986.29       GW BOUNDARY FLOW =             34.66

   INFLOWS - OUTFLOWS =        7623777.05     INFLOWS - OUTFLOWS =         -55940.03
             --------                                   --------

 TOTAL STORAGE CHANGE =        7506217.19         STORAGE CHANGE =         -58870.80
       --------------                             --------------
         LAND SURFACE =        3672284.11           LAND SURFACE =        -192335.10
            SOIL ZONE =        6343996.00              SOIL ZONE =         118893.40
     UNSATURATED ZONE =       -3063000.77       UNSATURATED ZONE =          16819.61
       SATURATED ZONE =         552935.58         SATURATED ZONE =          -2248.76

 OVERALL BUDGET ERROR =         117559.86           BUDGET ERROR =           2930.77

  ***WARNING, FLUX RATES OFF > 3%

  PERCENT DISCREPANCY =              0.91    PERCENT DISCREPANCY =              5.11



1
 SUMMARY VOLUMETRIC BUDGET FOR GSFLOW 
 DATE: 04 21 1991              CUMULATIVE TIME STEP:      21
 MODFLOW STRESS PERIOD      8     CURRENT TIME STEP:     203     ITERATIONS:       7

 -----------------------------------------------------------------------------------

   CUMULATIVE VOLUMES               L**3   RATES FOR THIS TIME STEP           L**3/T
   ------------------                      ------------------------

                                     IN                                         IN
                                     --                                         --
        PRECIPITATION =        1.3034D+07          PRECIPITATION =                  
           STREAMFLOW =                               STREAMFLOW =                  
     GW BOUNDARY FLOW =             83.56       GW BOUNDARY FLOW =              1.22


                                    OUT                                        OUT
                                    ---                                        ---
   EVAPOTRANSPIRATION =        3392429.58     EVAPOTRANSPIRATION =          46823.47
           STREAMFLOW =        2345736.21             STREAMFLOW =          14291.55
     GW BOUNDARY FLOW =           7228.53       GW BOUNDARY FLOW =             34.57

   INFLOWS - OUTFLOWS =        7288751.35     INFLOWS - OUTFLOWS =         -61148.37
             --------                                   --------

 TOTAL STORAGE CHANGE =        7155397.44         STORAGE CHANGE =         -63715.28
       --------------                             --------------
         LAND SURFACE =        2547468.51           LAND SURFACE =        -207234.02
            SOIL ZONE =        6998035.32              SOIL ZONE =         123430.49
     UNSATURATED ZONE =       -2930314.60       UNSATURATED ZONE =          21611.51
       SATURATED ZONE =         540205.58         SATURATED ZONE =          -1523.31

 OVERALL BUDGET ERROR =         133353.91           BUDGET ERROR =           2566.91

  ***WARNING, FLUX RATES OFF > 3%

  PERCENT DISCREPANCY =              1.03    PERCENT DISCREPANCY =              4.11



1
 SUMMARY VOLUMETRIC BUDGET FOR GSFLOW 
 DATE: 04 28 1991              CUMULATIVE TIME STEP:      28
 MODFLOW STRESS PERIOD      8     CURRENT TIME STEP:     210     ITERATIONS:       7

 -----------------------------------------------------------------------------------

   CUMULATIVE VOLUMES               L**3   RATES FOR THIS TIME STEP           L**3/T
   ------------------                      ------------------------

                                     IN                                         IN
                                     --                                         --
        PRECIPITATION =        1.3303D+07          PRECIPITATION =                  
           STREAMFLOW =                               STREAMFLOW =                  
     GW BOUNDARY FLOW =             92.26       GW BOUNDARY FLOW =              1.26


                                    OUT                                        OUT
                                    ---                                        ---
   EVAPOTRANSPIRATION =        3660427.25     EVAPOTRANSPIRATION =          58044.45
           STREAMFLOW =        2445637.58             STREAMFLOW =          14111.84
     GW BOUNDARY FLOW =           7470.04       GW BOUNDARY FLOW =             34.45

   INFLOWS - OUTFLOWS =        7189987.89     INFLOWS - OUTFLOWS =         -72189.47
             --------                                   --------

 TOTAL STORAGE CHANGE =        7046341.18         STORAGE CHANGE =         -73132.32
       --------------                             --------------
         LAND SURFACE =        1956065.34           LAND SURFACE =        -103533.27
            SOIL ZONE =        7326529.41              SOIL ZONE =           7965.84
     UNSATURATED ZONE =       -2768631.77       UNSATURATED ZONE =          23465.23
       SATURATED ZONE =         532375.18         SATURATED ZONE =          -1030.17

 OVERALL BUDGET ERROR =         143646.72           BUDGET ERROR =            942.84


  PERCENT DISCREPANCY =              1.09    PERCENT DISCREPANCY =              1.30



1
 SUMMARY VOLUMETRIC BUDGET FOR GSFLOW 
 DATE: 05 05 1991              CUMULATIVE TIME STEP:       5
 MODFLOW STRESS PERIOD      9     CURRENT TIME STEP:     217     ITERATIONS:       7

 -----------------------------------------------------------------------------------

   CUMULATIVE VOLUMES               L**3   RATES FOR THIS TIME STEP           L**3/T
   ------------------                      ------------------------

                                     IN                                         IN
                                     --                                         --
        PRECIPITATION =        1.3510D+07          PRECIPITATION =                  
           STREAMFLOW =                               STREAMFLOW =                  
     GW BOUNDARY FLOW =            101.28       GW BOUNDARY FLOW =              1.31


                                    OUT                                        OUT
                                    ---                                        ---
   EVAPOTRANSPIRATION =        4037047.07     EVAPOTRANSPIRATION =          90146.04
           STREAMFLOW =        2545438.96             STREAMFLOW =          14211.86
     GW BOUNDARY FLOW =           7710.67       GW BOUNDARY FLOW =             34.30

   INFLOWS - OUTFLOWS =        6919612.71     INFLOWS - OUTFLOWS =        -104390.90
             --------                                   --------

 TOTAL STORAGE CHANGE =        6768913.16         STORAGE CHANGE =        -105367.92
       --------------                             --------------
         LAND SURFACE =        1340535.39           LAND SURFACE =        -138721.82
            SOIL ZONE =        7502790.57              SOIL ZONE =           9468.67
     UNSATURATED ZONE =       -2601854.83       UNSATURATED ZONE =          24419.34
       SATURATED ZONE =         527438.60         SATURATED ZONE =           -534.17

 OVERALL BUDGET ERROR =         150699.55           BUDGET ERROR =            977.02


  PERCENT DISCREPANCY =              1.12    PERCENT DISCREPANCY =              0.93



1
 SUMMARY VOLUMETRIC BUDGET FOR GSFLOW 
 DATE: 05 12 1991              CUMULATIVE TIME STEP:      12
 MODFLOW STRESS PERIOD      9     CURRENT TIME STEP:     224     ITERATIONS:       8

 -----------------------------------------------------------------------------------

   CUMULATIVE VOLUMES               L**3   RATES FOR THIS TIME STEP           L**3/T
   ------------------                      ------------------------

                                     IN                                         IN
                                     --                                         --
        PRECIPITATION =        1.4029D+07          PRECIPITATION =                  
           STREAMFLOW =                               STREAMFLOW =                  
     GW BOUNDARY FLOW =            110.59       GW BOUNDARY FLOW =              1.35


                                    OUT                                        OUT
                                    ---                                        ---
   EVAPOTRANSPIRATION =        4432293.89     EVAPOTRANSPIRATION =          68731.93
           STREAMFLOW =        2649047.33             STREAMFLOW =          16741.15
     GW BOUNDARY FLOW =           7950.12       GW BOUNDARY FLOW =             34.17

   INFLOWS - OUTFLOWS =        6940041.40     INFLOWS - OUTFLOWS =         -85505.90
             --------                                   --------

 TOTAL STORAGE CHANGE =        6781494.40         STORAGE CHANGE =         -86623.17
       --------------                             --------------
         LAND SURFACE =         922541.63           LAND SURFACE =        -201242.83
            SOIL ZONE =        7765826.59              SOIL ZONE =          90319.35
     UNSATURATED ZONE =       -2434465.82       UNSATURATED ZONE =          24128.79
       SATURATED ZONE =         527588.14         SATURATED ZONE =            171.47

 OVERALL BUDGET ERROR =         158547.01           BUDGET ERROR =           1117.26


  PERCENT DISCREPANCY =              1.14    PERCENT DISCREPANCY =              1.30



1
 SUMMARY VOLUMETRIC BUDGET FOR GSFLOW 
 DATE: 05 19 1991              CUMULATIVE TIME STEP:      19
 MODFLOW STRESS PERIOD      9     CURRENT TIME STEP:     231     ITERATIONS:       6

 -----------------------------------------------------------------------------------

   CUMULATIVE VOLUMES               L**3   RATES FOR THIS TIME STEP           L**3/T
   ------------------                      ------------------------

                                     IN                                         IN
                                     --                                         --
        PRECIPITATION =        1.4365D+07          PRECIPITATION =                  
           STREAMFLOW =                               STREAMFLOW =                  
     GW BOUNDARY FLOW =            118.57       GW BOUNDARY FLOW =              0.83


                                    OUT                                        OUT
                                    ---                                        ---
   EVAPOTRANSPIRATION =        4870559.16     EVAPOTRANSPIRATION =          20369.32
           STREAMFLOW =        2751152.98             STREAMFLOW =          14595.08
     GW BOUNDARY FLOW =           8188.30       GW BOUNDARY FLOW =             33.95

   INFLOWS - OUTFLOWS =        6735596.44     INFLOWS - OUTFLOWS =         -34997.53
             --------                                   --------

 TOTAL STORAGE CHANGE =        6572621.66         STORAGE CHANGE =         -35026.34
       --------------                             --------------
         LAND SURFACE =         495301.97           LAND SURFACE =         -23117.07
            SOIL ZONE =        7819948.02              SOIL ZONE =         -34688.10
     UNSATURATED ZONE =       -2274378.35       UNSATURATED ZONE =          21819.32
       SATURATED ZONE =         531745.73         SATURATED ZONE =            959.45

 OVERALL BUDGET ERROR =         162974.78           BUDGET ERROR =             28.81


  PERCENT DISCREPANCY =              1.14    PERCENT DISCREPANCY =              0.08



1
 SUMMARY VOLUMETRIC BUDGET FOR GSFLOW 
 DATE: 05 26 1991              CUMULATIVE TIME STEP:      26
 MODFLOW STRESS PERIOD      9     CURRENT TIME STEP:     238     ITERATIONS:       6

 -----------------------------------------------------------------------------------

   CUMULATIVE VOLUMES               L**3   RATES FOR THIS TIME STEP           L**3/T
   ------------------                      ------------------------

                                     IN                                         IN
                                     --                                         --
        PRECIPITATION =        1.4426D+07          PRECIPITATION =                  
           STREAMFLOW =                               STREAMFLOW =                  
     GW BOUNDARY FLOW =            121.88       GW BOUNDARY FLOW =              0.28


                                    OUT                                        OUT
                                    ---                                        ---
   EVAPOTRANSPIRATION =        5554741.46     EVAPOTRANSPIRATION =          76904.60
           STREAMFLOW =        2850973.89             STREAMFLOW =          14106.42
     GW BOUNDARY FLOW =           8425.25       GW BOUNDARY FLOW =             33.77

   INFLOWS - OUTFLOWS =        6012478.88     INFLOWS - OUTFLOWS =         -91044.51
             --------                                   --------

 TOTAL STORAGE CHANGE =        5849336.93         STORAGE CHANGE =         -91014.82
       --------------                             --------------
         LAND SURFACE =         197544.19           LAND SURFACE =         -18436.03
            SOIL ZONE =        7248026.49              SOIL ZONE =         -90408.22
     UNSATURATED ZONE =       -2136824.58       UNSATURATED ZONE =          16499.57
       SATURATED ZONE =         540586.09         SATURATED ZONE =           1329.80

 OVERALL BUDGET ERROR =         163141.95           BUDGET ERROR =            -29.68


  PERCENT DISCREPANCY =              1.14    PERCENT DISCREPANCY =             -0.03



1
 SUMMARY VOLUMETRIC BUDGET FOR GSFLOW 
 DATE: 06 02 1991              CUMULATIVE TIME STEP:       2
 MODFLOW STRESS PERIOD     10     CURRENT TIME STEP:     245     ITERATIONS:       6

 -----------------------------------------------------------------------------------

   CUMULATIVE VOLUMES               L**3   RATES FOR THIS TIME STEP           L**3/T
   ------------------                      ------------------------

                                     IN                                         IN
                                     --                                         --
        PRECIPITATION =        1.4671D+07          PRECIPITATION =                  
           STREAMFLOW =                               STREAMFLOW =                  
     GW BOUNDARY FLOW =            122.57       GW BOUNDARY FLOW =        2.3017D-03


                                    OUT                                        OUT
                                    ---                                        ---
   EVAPOTRANSPIRATION =        6143291.30     EVAPOTRANSPIRATION =         127569.57
           STREAMFLOW =        2950032.00             STREAMFLOW =          13896.48
     GW BOUNDARY FLOW =           8661.10       GW BOUNDARY FLOW =             33.66

   INFLOWS - OUTFLOWS =        5569112.97     INFLOWS - OUTFLOWS =        -141499.70
             --------                                   --------

 TOTAL STORAGE CHANGE =        5405952.46         STORAGE CHANGE =        -140493.26
       --------------                             --------------
         LAND SURFACE =          88633.57           LAND SURFACE =         -14332.45
            SOIL ZONE =        6802642.57              SOIL ZONE =        -140460.23
     UNSATURATED ZONE =       -2032476.95       UNSATURATED ZONE =          13541.78
       SATURATED ZONE =         547148.08         SATURATED ZONE =            757.58

 OVERALL BUDGET ERROR =         163160.51           BUDGET ERROR =          -1006.45


  PERCENT DISCREPANCY =              1.12    PERCENT DISCREPANCY =             -0.71



1
 SUMMARY VOLUMETRIC BUDGET FOR GSFLOW 
 DATE: 06 09 1991              CUMULATIVE TIME STEP:       9
 MODFLOW STRESS PERIOD     10     CURRENT TIME STEP:     252     ITERATIONS:       6

 -----------------------------------------------------------------------------------

   CUMULATIVE VOLUMES               L**3   RATES FOR THIS TIME STEP           L**3/T
   ------------------                      ------------------------

                                     IN                                         IN
                                     --                                         --
        PRECIPITATION =        1.4671D+07          PRECIPITATION =                  
           STREAMFLOW =                               STREAMFLOW =                  
     GW BOUNDARY FLOW =            122.57       GW BOUNDARY FLOW =                  


                                    OUT                                        OUT
                                    ---                                        ---
   EVAPOTRANSPIRATION =        6931789.96     EVAPOTRANSPIRATION =         172472.79
           STREAMFLOW =        3046168.94             STREAMFLOW =          13468.53
     GW BOUNDARY FLOW =           8897.16       GW BOUNDARY FLOW =             33.76

   INFLOWS - OUTFLOWS =        4684241.31     INFLOWS - OUTFLOWS =        -185975.09
             --------                                   --------

 TOTAL STORAGE CHANGE =        4528075.70         STORAGE CHANGE =        -184377.22
       --------------                             --------------
         LAND SURFACE =          34321.29           LAND SURFACE =          -7487.89
            SOIL ZONE =        5915164.43              SOIL ZONE =        -182447.24
     UNSATURATED ZONE =       -1971383.63       UNSATURATED ZONE =           5496.68
       SATURATED ZONE =         549967.99         SATURATED ZONE =             61.16

 OVERALL BUDGET ERROR =         156165.61           BUDGET ERROR =          -1597.86


  PERCENT DISCREPANCY =              1.07    PERCENT DISCREPANCY =             -0.86



1
 SUMMARY VOLUMETRIC BUDGET FOR GSFLOW 
 DATE: 06 16 1991              CUMULATIVE TIME STEP:      16
 MODFLOW STRESS PERIOD     10     CURRENT TIME STEP:     259     ITERATIONS:       7

 -----------------------------------------------------------------------------------

   CUMULATIVE VOLUMES               L**3   RATES FOR THIS TIME STEP           L**3/T
   ------------------                      ------------------------

                                     IN                                         IN
                                     --                                         --
        PRECIPITATION =        1.4671D+07          PRECIPITATION =                  
           STREAMFLOW =                               STREAMFLOW =                  
     GW BOUNDARY FLOW =            122.57       GW BOUNDARY FLOW =                  


                                    OUT                                        OUT
                                    ---                                        ---
   EVAPOTRANSPIRATION =        7953422.57     EVAPOTRANSPIRATION =         119137.02
           STREAMFLOW =        3138649.57             STREAMFLOW =          13002.69
     GW BOUNDARY FLOW =           9133.55       GW BOUNDARY FLOW =             33.76

   INFLOWS - OUTFLOWS =        3569891.69     INFLOWS - OUTFLOWS =        -132173.47
             --------                                   --------

 TOTAL STORAGE CHANGE =        3422587.62         STORAGE CHANGE =        -131359.57
       --------------                             --------------
         LAND SURFACE =           9152.88           LAND SURFACE =          -1827.13
            SOIL ZONE =        4838815.97              SOIL ZONE =        -125660.07
     UNSATURATED ZONE =       -1972295.11       UNSATURATED ZONE =          -2914.92
       SATURATED ZONE =         546907.79         SATURATED ZONE =           -957.51

 OVERALL BUDGET ERROR =         147304.07           BUDGET ERROR =           -813.90


  PERCENT DISCREPANCY =              1.01    PERCENT DISCREPANCY =             -0.62



1
 SUMMARY VOLUMETRIC BUDGET FOR GSFLOW 
 DATE: 06 23 1991              CUMULATIVE TIME STEP:      23
 MODFLOW STRESS PERIOD     10     CURRENT TIME STEP:     266     ITERATIONS:       6

 -----------------------------------------------------------------------------------

   CUMULATIVE VOLUMES               L**3   RATES FOR THIS TIME STEP           L**3/T
   ------------------                      ------------------------

                                     IN                                         IN
                                     --                                         --
        PRECIPITATION =        1.4671D+07          PRECIPITATION =                  
           STREAMFLOW =                               STREAMFLOW =                  
     GW BOUNDARY FLOW =            122.57       GW BOUNDARY FLOW =                  


                                    OUT                                        OUT
                                    ---                                        ---
   EVAPOTRANSPIRATION =        8531976.52     EVAPOTRANSPIRATION =          44261.63
           STREAMFLOW =        3228847.82             STREAMFLOW =          12905.72
     GW BOUNDARY FLOW =           9369.49       GW BOUNDARY FLOW =             33.66

   INFLOWS - OUTFLOWS =        2900903.54     INFLOWS - OUTFLOWS =         -57201.01
             --------                                   --------

 TOTAL STORAGE CHANGE =        2756704.29         STORAGE CHANGE =         -56975.55
       --------------                             --------------
         LAND SURFACE =           2074.79           LAND SURFACE =           -307.10
            SOIL ZONE =        4225168.92              SOIL ZONE =         -48983.23
     UNSATURATED ZONE =       -2007851.71       UNSATURATED ZONE =          -5982.75
       SATURATED ZONE =         537305.74         SATURATED ZONE =          -1702.53

 OVERALL BUDGET ERROR =         144199.25           BUDGET ERROR =           -225.46


  PERCENT DISCREPANCY =              0.99    PERCENT DISCREPANCY =             -0.39



1
 SUMMARY VOLUMETRIC BUDGET FOR GSFLOW 
 DATE: 06 30 1991              CUMULATIVE TIME STEP:      30
 MODFLOW STRESS PERIOD     10     CURRENT TIME STEP:     273     ITERATIONS:      10

 -----------------------------------------------------------------------------------

   CUMULATIVE VOLUMES               L**3   RATES FOR THIS TIME STEP           L**3/T
[...]
                                    ---                                        ---
   EVAPOTRANSPIRATION =        8.2708D+07     EVAPOTRANSPIRATION =         106003.52
           STREAMFLOW =        4.8972D+07             STREAMFLOW =          12792.04
     GW BOUNDARY FLOW =          55845.66       GW BOUNDARY FLOW =             36.66

   INFLOWS - OUTFLOWS =        1775648.70     INFLOWS - OUTFLOWS =        -118832.22
             --------                                   --------

 TOTAL STORAGE CHANGE =         535189.90         STORAGE CHANGE =        -118553.17
       --------------                             --------------
         LAND SURFACE =         250394.10           LAND SURFACE =         -14469.68
            SOIL ZONE =        3828241.68              SOIL ZONE =         -93930.78
     UNSATURATED ZONE =        2178043.44       UNSATURATED ZONE =         -19989.98
       SATURATED ZONE =       -5721878.12         SATURATED ZONE =           9836.73

 OVERALL BUDGET ERROR =        1240458.80           BUDGET ERROR =           -279.05


  PERCENT DISCREPANCY =              0.93    PERCENT DISCREPANCY =             -0.24



1
 SUMMARY VOLUMETRIC BUDGET FOR GSFLOW 
 DATE: 09 03 1995              CUMULATIVE TIME STEP:       3
 MODFLOW STRESS PERIOD     61     CURRENT TIME STEP:    1799     ITERATIONS:      12

 -----------------------------------------------------------------------------------

   CUMULATIVE VOLUMES               L**3   RATES FOR THIS TIME STEP           L**3/T
   ------------------                      ------------------------

                                     IN                                         IN
                                     --                                         --
        PRECIPITATION =        1.3351D+08          PRECIPITATION =                  
           STREAMFLOW =                               STREAMFLOW =                  
     GW BOUNDARY FLOW =           2969.70       GW BOUNDARY FLOW =                  


                                    OUT                                        OUT
                                    ---                                        ---
   EVAPOTRANSPIRATION =        8.3429D+07     EVAPOTRANSPIRATION =          96999.77
           STREAMFLOW =        4.9059D+07             STREAMFLOW =          12185.67
     GW BOUNDARY FLOW =          56101.65       GW BOUNDARY FLOW =             36.46

   INFLOWS - OUTFLOWS =         967369.49     INFLOWS - OUTFLOWS =        -109221.91
             --------                                   --------

 TOTAL STORAGE CHANGE =        -271920.39         STORAGE CHANGE =        -109159.42
       --------------                             --------------
         LAND SURFACE =         165492.08           LAND SURFACE =         -10177.34
            SOIL ZONE =        3198885.17              SOIL ZONE =         -84162.72
     UNSATURATED ZONE =        2028461.02       UNSATURATED ZONE =         -21792.44
       SATURATED ZONE =       -5665151.25         SATURATED ZONE =           6972.54

 OVERALL BUDGET ERROR =        1239289.88           BUDGET ERROR =            -62.49


  PERCENT DISCREPANCY =              0.93    PERCENT DISCREPANCY =             -0.06



1
 SUMMARY VOLUMETRIC BUDGET FOR GSFLOW 
 DATE: 09 10 1995              CUMULATIVE TIME STEP:      10
 MODFLOW STRESS PERIOD     61     CURRENT TIME STEP:    1806     ITERATIONS:      11

 -----------------------------------------------------------------------------------

   CUMULATIVE VOLUMES               L**3   RATES FOR THIS TIME STEP           L**3/T
   ------------------                      ------------------------

                                     IN                                         IN
                                     --                                         --
        PRECIPITATION =        1.3351D+08          PRECIPITATION =                  
           STREAMFLOW =                               STREAMFLOW =                  
     GW BOUNDARY FLOW =           2969.70       GW BOUNDARY FLOW =                  


                                    OUT                                        OUT
                                    ---                                        ---
   EVAPOTRANSPIRATION =        8.3977D+07     EVAPOTRANSPIRATION =          73700.81
           STREAMFLOW =        4.9144D+07             STREAMFLOW =          11948.16
     GW BOUNDARY FLOW =          56356.89       GW BOUNDARY FLOW =             36.45

   INFLOWS - OUTFLOWS =         333785.29     INFLOWS - OUTFLOWS =         -85685.42
             --------                                   --------

 TOTAL STORAGE CHANGE =        -905177.24         STORAGE CHANGE =         -85643.43
       --------------                             --------------
         LAND SURFACE =         114180.46           LAND SURFACE =          -6288.97
            SOIL ZONE =        2719793.20              SOIL ZONE =         -64094.14
     UNSATURATED ZONE =        1879092.89       UNSATURATED ZONE =         -21025.37
       SATURATED ZONE =       -5618640.18         SATURATED ZONE =           5764.50

 OVERALL BUDGET ERROR =        1238962.53           BUDGET ERROR =            -41.99


  PERCENT DISCREPANCY =              0.93    PERCENT DISCREPANCY =             -0.05



1
 SUMMARY VOLUMETRIC BUDGET FOR GSFLOW 
 DATE: 09 17 1995              CUMULATIVE TIME STEP:      17
 MODFLOW STRESS PERIOD     61     CURRENT TIME STEP:    1813     ITERATIONS:      11

 -----------------------------------------------------------------------------------

   CUMULATIVE VOLUMES               L**3   RATES FOR THIS TIME STEP           L**3/T
   ------------------                      ------------------------

                                     IN                                         IN
                                     --                                         --
        PRECIPITATION =        1.3351D+08          PRECIPITATION =                  
           STREAMFLOW =                               STREAMFLOW =                  
     GW BOUNDARY FLOW =           2969.70       GW BOUNDARY FLOW =                  


                                    OUT                                        OUT
                                    ---                                        ---
   EVAPOTRANSPIRATION =        8.4583D+07     EVAPOTRANSPIRATION =          70064.64
           STREAMFLOW =        4.9221D+07             STREAMFLOW =          11055.19
     GW BOUNDARY FLOW =          56611.07       GW BOUNDARY FLOW =             36.29

   INFLOWS - OUTFLOWS =        -349100.05     INFLOWS - OUTFLOWS =         -81156.12
             --------                                   --------

 TOTAL STORAGE CHANGE =       -1587691.86         STORAGE CHANGE =         -81115.22
       --------------                             --------------
         LAND SURFACE =          70168.05           LAND SURFACE =          -4548.33
            SOIL ZONE =        2211750.75              SOIL ZONE =         -58753.47
     UNSATURATED ZONE =        1727443.70       UNSATURATED ZONE =         -21079.59
       SATURATED ZONE =       -5597454.54         SATURATED ZONE =           3265.62

 OVERALL BUDGET ERROR =        1238591.81           BUDGET ERROR =            -40.90


  PERCENT DISCREPANCY =              0.92    PERCENT DISCREPANCY =             -0.05



1
 SUMMARY VOLUMETRIC BUDGET FOR GSFLOW 
 DATE: 09 24 1995              CUMULATIVE TIME STEP:      24
 MODFLOW STRESS PERIOD     61     CURRENT TIME STEP:    1820     ITERATIONS:      12

 -----------------------------------------------------------------------------------

   CUMULATIVE VOLUMES               L**3   RATES FOR THIS TIME STEP           L**3/T
   ------------------                      ------------------------

                                     IN                                         IN
                                     --                                         --
        PRECIPITATION =        1.3351D+08          PRECIPITATION =                  
           STREAMFLOW =                               STREAMFLOW =                  
     GW BOUNDARY FLOW =           2969.71       GW BOUNDARY FLOW =        1.4710D-03


                                    OUT                                        OUT
                                    ---                                        ---
   EVAPOTRANSPIRATION =        8.5029D+07     EVAPOTRANSPIRATION =          47631.36
           STREAMFLOW =        4.9297D+07             STREAMFLOW =          11221.65
     GW BOUNDARY FLOW =          56864.65       GW BOUNDARY FLOW =             36.23

   INFLOWS - OUTFLOWS =        -870805.67     INFLOWS - OUTFLOWS =         -58889.24
             --------                                   --------

 TOTAL STORAGE CHANGE =       -2109135.09         STORAGE CHANGE =         -58862.66
       --------------                             --------------
         LAND SURFACE =          44803.49           LAND SURFACE =          -2405.14
            SOIL ZONE =        1846084.21              SOIL ZONE =         -39092.13
     UNSATURATED ZONE =        1577704.00       UNSATURATED ZONE =         -21120.02
       SATURATED ZONE =       -5578130.77         SATURATED ZONE =           3754.09

 OVERALL BUDGET ERROR =        1238329.42           BUDGET ERROR =            -26.57


  PERCENT DISCREPANCY =              0.92    PERCENT DISCREPANCY =             -0.05



1
 SUMMARY VOLUMETRIC BUDGET FOR GSFLOW 
 DATE: 10 01 1995              CUMULATIVE TIME STEP:       1
 MODFLOW STRESS PERIOD     62     CURRENT TIME STEP:    1827     ITERATIONS:      12

 -----------------------------------------------------------------------------------

   CUMULATIVE VOLUMES               L**3   RATES FOR THIS TIME STEP           L**3/T
   ------------------                      ------------------------

                                     IN                                         IN
                                     --                                         --
        PRECIPITATION =        1.3351D+08          PRECIPITATION =                  
           STREAMFLOW =                               STREAMFLOW =                  
     GW BOUNDARY FLOW =           2969.73       GW BOUNDARY FLOW =        3.7715D-03


                                    OUT                                        OUT
                                    ---                                        ---
   EVAPOTRANSPIRATION =        8.5235D+07     EVAPOTRANSPIRATION =          30102.83
           STREAMFLOW =        4.9380D+07             STREAMFLOW =          11754.60
     GW BOUNDARY FLOW =          57118.42       GW BOUNDARY FLOW =             36.21

   INFLOWS - OUTFLOWS =       -1160169.77     INFLOWS - OUTFLOWS =         -41893.64
             --------                                   --------

 TOTAL STORAGE CHANGE =       -2398409.68         STORAGE CHANGE =         -41880.84
       --------------                             --------------
         LAND SURFACE =          36039.12           LAND SURFACE =          -1097.60
            SOIL ZONE =        1672013.82              SOIL ZONE =         -25136.25
     UNSATURATED ZONE =        1434846.82       UNSATURATED ZONE =         -19970.96
       SATURATED ZONE =       -5541717.19         SATURATED ZONE =           4323.43

 OVERALL BUDGET ERROR =        1238239.92           BUDGET ERROR =            -12.80


  PERCENT DISCREPANCY =              0.92    PERCENT DISCREPANCY =             -0.03



1
 SUMMARY VOLUMETRIC BUDGET FOR GSFLOW 
 DATE: 10 08 1995              CUMULATIVE TIME STEP:       8
 MODFLOW STRESS PERIOD     62     CURRENT TIME STEP:    1834     ITERATIONS:      11

 -----------------------------------------------------------------------------------

   CUMULATIVE VOLUMES               L**3   RATES FOR THIS TIME STEP           L**3/T
   ------------------                      ------------------------

                                     IN                                         IN
                                     --                                         --
        PRECIPITATION =        1.3351D+08          PRECIPITATION =                  
           STREAMFLOW =                               STREAMFLOW =                  
     GW BOUNDARY FLOW =           2969.76       GW BOUNDARY FLOW =        6.3190D-03


                                    OUT                                        OUT
                                    ---                                        ---
   EVAPOTRANSPIRATION =        8.5458D+07     EVAPOTRANSPIRATION =          28396.99
           STREAMFLOW =        4.9460D+07             STREAMFLOW =          11554.22
     GW BOUNDARY FLOW =          57371.24       GW BOUNDARY FLOW =             36.06

   INFLOWS - OUTFLOWS =       -1464274.08     INFLOWS - OUTFLOWS =         -39987.26
             --------                                   --------

 TOTAL STORAGE CHANGE =       -2702419.54         STORAGE CHANGE =         -39976.78
       --------------                             --------------
         LAND SURFACE =          29836.41           LAND SURFACE =           -999.36
            SOIL ZONE =        1488868.86              SOIL ZONE =         -22863.44
     UNSATURATED ZONE =        1298795.67       UNSATURATED ZONE =         -18854.51
       SATURATED ZONE =       -5520332.02         SATURATED ZONE =           2739.99

 OVERALL BUDGET ERROR =        1238145.45           BUDGET ERROR =            -10.48


  PERCENT DISCREPANCY =              0.91    PERCENT DISCREPANCY =             -0.03



1
 SUMMARY VOLUMETRIC BUDGET FOR GSFLOW 
 DATE: 10 15 1995              CUMULATIVE TIME STEP:      15
 MODFLOW STRESS PERIOD     62     CURRENT TIME STEP:    1841     ITERATIONS:       9

 -----------------------------------------------------------------------------------

   CUMULATIVE VOLUMES               L**3   RATES FOR THIS TIME STEP           L**3/T
   ------------------                      ------------------------

                                     IN                                         IN
                                     --                                         --
        PRECIPITATION =        1.3351D+08          PRECIPITATION =                  
           STREAMFLOW =                               STREAMFLOW =                  
     GW BOUNDARY FLOW =           2969.82       GW BOUNDARY FLOW =        8.8474D-03


                                    OUT                                        OUT
                                    ---                                        ---
   EVAPOTRANSPIRATION =        8.5672D+07     EVAPOTRANSPIRATION =          33507.70
           STREAMFLOW =        4.9539D+07             STREAMFLOW =          10971.56
     GW BOUNDARY FLOW =          57622.83       GW BOUNDARY FLOW =             35.84

   INFLOWS - OUTFLOWS =       -1757474.93     INFLOWS - OUTFLOWS =         -44515.09
             --------                                   --------

 TOTAL STORAGE CHANGE =       -2995557.25         STORAGE CHANGE =         -44505.25
       --------------                             --------------
         LAND SURFACE =          23515.32           LAND SURFACE =          -1043.94
            SOIL ZONE =        1322005.13              SOIL ZONE =         -25315.19
     UNSATURATED ZONE =        1167763.47       UNSATURATED ZONE =         -18428.27
       SATURATED ZONE =       -5509256.51         SATURATED ZONE =            281.60

 OVERALL BUDGET ERROR =        1238082.33           BUDGET ERROR =             -9.84


  PERCENT DISCREPANCY =              0.91    PERCENT DISCREPANCY =             -0.02



1
 SUMMARY VOLUMETRIC BUDGET FOR GSFLOW 
 DATE: 10 22 1995              CUMULATIVE TIME STEP:      22
 MODFLOW STRESS PERIOD     62     CURRENT TIME STEP:    1848     ITERATIONS:       9

 -----------------------------------------------------------------------------------

   CUMULATIVE VOLUMES               L**3   RATES FOR THIS TIME STEP           L**3/T
   ------------------                      ------------------------

                                     IN                                         IN
                                     --                                         --
        PRECIPITATION =        1.3351D+08          PRECIPITATION =                  
           STREAMFLOW =                               STREAMFLOW =                  
     GW BOUNDARY FLOW =           2969.89       GW BOUNDARY FLOW =              0.01


                                    OUT                                        OUT
                                    ---                                        ---
   EVAPOTRANSPIRATION =        8.5865D+07     EVAPOTRANSPIRATION =           8759.28
           STREAMFLOW =        4.9617D+07             STREAMFLOW =          12142.73
     GW BOUNDARY FLOW =          57873.02       GW BOUNDARY FLOW =             35.75

   INFLOWS - OUTFLOWS =       -2027969.66     INFLOWS - OUTFLOWS =         -20937.74
             --------                                   --------

 TOTAL STORAGE CHANGE =       -3266013.63         STORAGE CHANGE =         -20947.84
       --------------                             --------------
         LAND SURFACE =          17990.59           LAND SURFACE =             -7.04
            SOIL ZONE =        1178607.68              SOIL ZONE =          -7332.08
     UNSATURATED ZONE =        1042581.78       UNSATURATED ZONE =         -16747.32
       SATURATED ZONE =       -5505612.80         SATURATED ZONE =           3138.05

 OVERALL BUDGET ERROR =        1238043.97           BUDGET ERROR =             10.10


  PERCENT DISCREPANCY =              0.91    PERCENT DISCREPANCY =              0.05



1
 SUMMARY VOLUMETRIC BUDGET FOR GSFLOW 
 DATE: 10 29 1995              CUMULATIVE TIME STEP:      29
 MODFLOW STRESS PERIOD     62     CURRENT TIME STEP:    1855     ITERATIONS:       9

 -----------------------------------------------------------------------------------

   CUMULATIVE VOLUMES               L**3   RATES FOR THIS TIME STEP           L**3/T
   ------------------                      ------------------------

                                     IN                                         IN
                                     --                                         --
        PRECIPITATION =        1.3351D+08          PRECIPITATION =                  
           STREAMFLOW =                               STREAMFLOW =                  
     GW BOUNDARY FLOW =           2970.50       GW BOUNDARY FLOW =              0.14


                                    OUT                                        OUT
                                    ---                                        ---
   EVAPOTRANSPIRATION =        8.5987D+07     EVAPOTRANSPIRATION =          20970.85
           STREAMFLOW =        4.9698D+07             STREAMFLOW =          11211.72
     GW BOUNDARY FLOW =          58122.65       GW BOUNDARY FLOW =             35.59

   INFLOWS - OUTFLOWS =       -2230969.44     INFLOWS - OUTFLOWS =         -32218.02
             --------                                   --------

 TOTAL STORAGE CHANGE =       -3469022.32         STORAGE CHANGE =         -32215.11
       --------------                             --------------
         LAND SURFACE =          16019.64           LAND SURFACE =           -602.91
            SOIL ZONE =        1087651.35              SOIL ZONE =         -15001.59
     UNSATURATED ZONE =         928242.38       UNSATURATED ZONE =         -15997.52
       SATURATED ZONE =       -5501358.60         SATURATED ZONE =           -613.63

 OVERALL BUDGET ERROR =        1238052.88           BUDGET ERROR =             -2.91


  PERCENT DISCREPANCY =              0.91    PERCENT DISCREPANCY =             -0.01



