1
 SUMMARY VOLUMETRIC BUDGET FOR GSFLOW 
 DATE: 10 07 1990              CUMULATIVE TIME STEP:       7
 MODFLOW STRESS PERIOD      2     CURRENT TIME STEP:       7     ITERATIONS:       7

 -----------------------------------------------------------------------------------

   CUMULATIVE VOLUMES               L**3   RATES FOR THIS TIME STEP           L**3/T
   ------------------                      ------------------------

                                     IN                                         IN
                                     --                                         --
        PRECIPITATION =                            PRECIPITATION =                  
           STREAMFLOW =                               STREAMFLOW =                  
     GW BOUNDARY FLOW =                         GW BOUNDARY FLOW =                  


                                    OUT                                        OUT
                                    ---                                        ---
   EVAPOTRANSPIRATION =         385031.63     EVAPOTRANSPIRATION =          11801.34
           STREAMFLOW =          45661.61             STREAMFLOW =           8128.74
     GW BOUNDARY FLOW =            252.78       GW BOUNDARY FLOW =             36.30

   INFLOWS - OUTFLOWS =        -430946.01     INFLOWS - OUTFLOWS =         -19966.38
             --------                                   --------

 TOTAL STORAGE CHANGE =        -429355.10         STORAGE CHANGE =         -19938.35
       --------------                             --------------
         LAND SURFACE =                             LAND SURFACE =                  
            SOIL ZONE =         -33384.03              SOIL ZONE =           -943.80
     UNSATURATED ZONE =        -502794.45       UNSATURATED ZONE =         -33592.86
       SATURATED ZONE =         106823.38         SATURATED ZONE =          14598.31

 OVERALL BUDGET ERROR =          -1590.91           BUDGET ERROR =            -28.04


  PERCENT DISCREPANCY =             -0.37    PERCENT DISCREPANCY =             -0.14



1
 SUMMARY VOLUMETRIC BUDGET FOR GSFLOW 
 DATE: 10 14 1990              CUMULATIVE TIME STEP:      14
 MODFLOW STRESS PERIOD      2     CURRENT TIME STEP:      14     ITERATIONS:       6

 -----------------------------------------------------------------------------------

   CUMULATIVE VOLUMES               L**3   RATES FOR THIS TIME STEP           L**3/T
   ------------------                      ------------------------

                                     IN                                         IN
                                     --                                         --
        PRECIPITATION =                            PRECIPITATION =                  
           STREAMFLOW =                               STREAMFLOW =                  
     GW BOUNDARY FLOW =                         GW BOUNDARY FLOW =                  


                                    OUT                                        OUT
                                    ---                                        ---
   EVAPOTRANSPIRATION =         665235.67     EVAPOTRANSPIRATION =          42298.13
           STREAMFLOW =         100376.39             STREAMFLOW =           7413.80
     GW BOUNDARY FLOW =            506.61       GW BOUNDARY FLOW =             36.24

   INFLOWS - OUTFLOWS =        -766118.67     INFLOWS - OUTFLOWS =         -49748.17
             --------                                   --------

 TOTAL STORAGE CHANGE =        -764154.83         STORAGE CHANGE =         -49710.99
       --------------                             --------------
         LAND SURFACE =                             LAND SURFACE =                  
            SOIL ZONE =         -58194.84              SOIL ZONE =          -4382.18
     UNSATURATED ZONE =        -877795.92       UNSATURATED ZONE =         -52080.87
       SATURATED ZONE =         171835.92         SATURATED ZONE =           6752.05

 OVERALL BUDGET ERROR =          -1963.85           BUDGET ERROR =            -37.18


  PERCENT DISCREPANCY =             -0.26    PERCENT DISCREPANCY =             -0.07



1
 SUMMARY VOLUMETRIC BUDGET FOR GSFLOW 
 DATE: 10 21 1990              CUMULATIVE TIME STEP:      21
 MODFLOW STRESS PERIOD      2     CURRENT TIME STEP:      21     ITERATIONS:       6

 -----------------------------------------------------------------------------------

   CUMULATIVE VOLUMES               L**3   RATES FOR THIS TIME STEP           L**3/T
   ------------------                      ------------------------

                                     IN                                         IN
                                     --                                         --
        PRECIPITATION =         188432.87          PRECIPITATION =                  
           STREAMFLOW =                               STREAMFLOW =                  
     GW BOUNDARY FLOW =                         GW BOUNDARY FLOW =                  


                                    OUT                                        OUT
                                    ---                                        ---
   EVAPOTRANSPIRATION =         815642.07     EVAPOTRANSPIRATION =          41836.91
           STREAMFLOW =         163139.95             STREAMFLOW =          10142.45
     GW BOUNDARY FLOW =            760.80       GW BOUNDARY FLOW =             36.37

   INFLOWS - OUTFLOWS =        -791109.95     INFLOWS - OUTFLOWS =         -52015.73
             --------                                   --------

 TOTAL STORAGE CHANGE =        -790332.75         STORAGE CHANGE =         -52006.87
       --------------                             --------------
         LAND SURFACE =          18885.57           LAND SURFACE =         -43558.49
            SOIL ZONE =          47305.10              SOIL ZONE =           2013.88
     UNSATURATED ZONE =       -1091620.78       UNSATURATED ZONE =         -21389.24
       SATURATED ZONE =         235097.35         SATURATED ZONE =          10926.98

 OVERALL BUDGET ERROR =           -777.19           BUDGET ERROR =             -8.85


  PERCENT DISCREPANCY =             -0.08    PERCENT DISCREPANCY =             -0.02



1
 SUMMARY VOLUMETRIC BUDGET FOR GSFLOW 
 DATE: 10 28 1990              CUMULATIVE TIME STEP:      28
 MODFLOW STRESS PERIOD      2     CURRENT TIME STEP:      28     ITERATIONS:       6

 -----------------------------------------------------------------------------------

   CUMULATIVE VOLUMES               L**3   RATES FOR THIS TIME STEP           L**3/T
   ------------------                      ------------------------

                                     IN                                         IN
                                     --                                         --
        PRECIPITATION =         188432.87          PRECIPITATION =                  
           STREAMFLOW =                               STREAMFLOW =                  
     GW BOUNDARY FLOW =                         GW BOUNDARY FLOW =                  


                                    OUT                                        OUT
                                    ---                                        ---
   EVAPOTRANSPIRATION =         944470.60     EVAPOTRANSPIRATION =          11826.96
           STREAMFLOW =         224519.61             STREAMFLOW =           8914.48
     GW BOUNDARY FLOW =           1013.98       GW BOUNDARY FLOW =             36.12

   INFLOWS - OUTFLOWS =        -981571.33     INFLOWS - OUTFLOWS =         -20777.57
             --------                                   --------

 TOTAL STORAGE CHANGE =        -980679.85         STORAGE CHANGE =         -20767.72
       --------------                             --------------
         LAND SURFACE =                             LAND SURFACE =                  
            SOIL ZONE =          18260.79              SOIL ZONE =          -3430.25
     UNSATURATED ZONE =       -1275154.35       UNSATURATED ZONE =         -23226.63
       SATURATED ZONE =         276213.71         SATURATED ZONE =           5889.16

 OVERALL BUDGET ERROR =           -891.48           BUDGET ERROR =             -9.85


  PERCENT DISCREPANCY =             -0.08    PERCENT DISCREPANCY =             -0.05



1
 SUMMARY VOLUMETRIC BUDGET FOR GSFLOW 
 DATE: 11 04 1990              CUMULATIVE TIME STEP:       4
 MODFLOW STRESS PERIOD      3     CURRENT TIME STEP:      35     ITERATIONS:       6

 -----------------------------------------------------------------------------------

   CUMULATIVE VOLUMES               L**3   RATES FOR THIS TIME STEP           L**3/T
   ------------------                      ------------------------

                                     IN                                         IN
                                     --                                         --
        PRECIPITATION =         703113.06          PRECIPITATION =                  
           STREAMFLOW =                               STREAMFLOW =                  
     GW BOUNDARY FLOW =                         GW BOUNDARY FLOW =                  


                                    OUT                                        OUT
                                    ---                                        ---
   EVAPOTRANSPIRATION =        1005169.70     EVAPOTRANSPIRATION =          26361.55
           STREAMFLOW =         295055.83             STREAMFLOW =          10633.16
     GW BOUNDARY FLOW =           1267.03       GW BOUNDARY FLOW =             36.14

   INFLOWS - OUTFLOWS =        -598379.50     INFLOWS - OUTFLOWS =         -37030.85
             --------                                   --------

 TOTAL STORAGE CHANGE =        -602654.70         STORAGE CHANGE =         -38309.22
       --------------                             --------------
         LAND SURFACE =         132159.65           LAND SURFACE =        -160480.33
            SOIL ZONE =         349909.94              SOIL ZONE =         132879.93
     UNSATURATED ZONE =       -1420666.55       UNSATURATED ZONE =         -20067.40
       SATURATED ZONE =         335942.24         SATURATED ZONE =           9358.58

 OVERALL BUDGET ERROR =           4275.21           BUDGET ERROR =           1278.37

  ***WARNING, FLUX RATES OFF > 3%

  PERCENT DISCREPANCY =              0.33    PERCENT DISCREPANCY =              3.39



1
 SUMMARY VOLUMETRIC BUDGET FOR GSFLOW 
 DATE: 11 11 1990              CUMULATIVE TIME STEP:      11
 MODFLOW STRESS PERIOD      3     CURRENT TIME STEP:      42     ITERATIONS:       6

 -----------------------------------------------------------------------------------

   CUMULATIVE VOLUMES               L**3   RATES FOR THIS TIME STEP           L**3/T
   ------------------                      ------------------------

                                     IN                                         IN
                                     --                                         --
        PRECIPITATION =         703113.06          PRECIPITATION =                  
           STREAMFLOW =                               STREAMFLOW =                  
     GW BOUNDARY FLOW =                         GW BOUNDARY FLOW =                  


                                    OUT                                        OUT
                                    ---                                        ---
   EVAPOTRANSPIRATION =        1082589.74     EVAPOTRANSPIRATION =          12158.65
           STREAMFLOW =         366095.60             STREAMFLOW =           9640.31
     GW BOUNDARY FLOW =           1519.13       GW BOUNDARY FLOW =             35.93

   INFLOWS - OUTFLOWS =        -747091.40     INFLOWS - OUTFLOWS =         -21834.88
             --------                                   --------

 TOTAL STORAGE CHANGE =        -751473.37         STORAGE CHANGE =         -21823.84
       --------------                             --------------
         LAND SURFACE =            595.09           LAND SURFACE =          -1416.54
            SOIL ZONE =         422044.06              SOIL ZONE =          -5448.89
     UNSATURATED ZONE =       -1559824.88       UNSATURATED ZONE =         -19857.36
       SATURATED ZONE =         385712.33         SATURATED ZONE =           4898.95

 OVERALL BUDGET ERROR =           4381.96           BUDGET ERROR =            -11.04


  PERCENT DISCREPANCY =              0.30    PERCENT DISCREPANCY =             -0.05



1
 SUMMARY VOLUMETRIC BUDGET FOR GSFLOW 
 DATE: 11 18 1990              CUMULATIVE TIME STEP:      18
 MODFLOW STRESS PERIOD      3     CURRENT TIME STEP:      49     ITERATIONS:       6

 -----------------------------------------------------------------------------------

   CUMULATIVE VOLUMES               L**3   RATES FOR THIS TIME STEP           L**3/T
   ------------------                      ------------------------

                                     IN                                         IN
                                     --                                         --
        PRECIPITATION =         747883.35          PRECIPITATION =                  
           STREAMFLOW =                               STREAMFLOW =                  
     GW BOUNDARY FLOW =                         GW BOUNDARY FLOW =                  


                                    OUT                                        OUT
                                    ---                                        ---
   EVAPOTRANSPIRATION =        1155162.57     EVAPOTRANSPIRATION =           5078.85
           STREAMFLOW =         437768.92             STREAMFLOW =          10663.91
     GW BOUNDARY FLOW =           1770.45       GW BOUNDARY FLOW =             35.88

   INFLOWS - OUTFLOWS =        -846818.58     INFLOWS - OUTFLOWS =         -15778.64
             --------                                   --------

 TOTAL STORAGE CHANGE =        -851184.71         STORAGE CHANGE =         -15782.07
       --------------                             --------------
         LAND SURFACE =           7868.08           LAND SURFACE =          -3691.47
            SOIL ZONE =         404074.25              SOIL ZONE =           -743.65
     UNSATURATED ZONE =       -1692995.68       UNSATURATED ZONE =         -18610.63
       SATURATED ZONE =         429868.59         SATURATED ZONE =           7263.67

 OVERALL BUDGET ERROR =           4366.13           BUDGET ERROR =              3.43


  PERCENT DISCREPANCY =              0.27    PERCENT DISCREPANCY =              0.02



1
 SUMMARY VOLUMETRIC BUDGET FOR GSFLOW 
 DATE: 11 25 1990              CUMULATIVE TIME STEP:      25
 MODFLOW STRESS PERIOD      3     CURRENT TIME STEP:      56     ITERATIONS:       6

 -----------------------------------------------------------------------------------

   CUMULATIVE VOLUMES               L**3   RATES FOR THIS TIME STEP           L**3/T
   ------------------                      ------------------------

                                     IN                                         IN
                                     --                                         --
        PRECIPITATION =        1009043.38          PRECIPITATION =         186542.88
           STREAMFLOW =                               STREAMFLOW =                  
     GW BOUNDARY FLOW =                         GW BOUNDARY FLOW =                  


                                    OUT                                        OUT
                                    ---                                        ---
   EVAPOTRANSPIRATION =        1215769.92     EVAPOTRANSPIRATION =           3755.07
           STREAMFLOW =         513731.38             STREAMFLOW =          10869.24
     GW BOUNDARY FLOW =           2021.39       GW BOUNDARY FLOW =             35.79

   INFLOWS - OUTFLOWS =        -722479.31     INFLOWS - OUTFLOWS =         171882.78
             --------                                   --------

 TOTAL STORAGE CHANGE =        -729024.46         STORAGE CHANGE =         169957.79
       --------------                             --------------
         LAND SURFACE =          86180.68           LAND SURFACE =          69567.13
            SOIL ZONE =         526114.77              SOIL ZONE =         112016.16
     UNSATURATED ZONE =       -1820597.73       UNSATURATED ZONE =         -17905.24
       SATURATED ZONE =         479277.77         SATURATED ZONE =           6279.73

 OVERALL BUDGET ERROR =           6545.15           BUDGET ERROR =           1924.99


  PERCENT DISCREPANCY =              0.38    PERCENT DISCREPANCY =              1.04



1
 SUMMARY VOLUMETRIC BUDGET FOR GSFLOW 
 DATE: 12 02 1990              CUMULATIVE TIME STEP:       2
 MODFLOW STRESS PERIOD      4     CURRENT TIME STEP:      63     ITERATIONS:       6

 -----------------------------------------------------------------------------------

   CUMULATIVE VOLUMES               L**3   RATES FOR THIS TIME STEP           L**3/T
   ------------------                      ------------------------

                                     IN                                         IN
                                     --                                         --
        PRECIPITATION =        1449284.55          PRECIPITATION =                  
           STREAMFLOW =                               STREAMFLOW =                  
     GW BOUNDARY FLOW =                         GW BOUNDARY FLOW =                  


                                    OUT                                        OUT
                                    ---                                        ---
   EVAPOTRANSPIRATION =        1222286.94     EVAPOTRANSPIRATION =            236.02
           STREAMFLOW =         590903.51             STREAMFLOW =          11065.52
     GW BOUNDARY FLOW =           2271.88       GW BOUNDARY FLOW =             35.77

   INFLOWS - OUTFLOWS =        -366177.77     INFLOWS - OUTFLOWS =         -11337.31
             --------                                   --------

 TOTAL STORAGE CHANGE =        -373858.41         STORAGE CHANGE =         -11346.30
       --------------                             --------------
         LAND SURFACE =         486845.62           LAND SURFACE =           -339.04
            SOIL ZONE =         558396.36              SOIL ZONE =            150.76
     UNSATURATED ZONE =       -1943443.03       UNSATURATED ZONE =         -17255.21
       SATURATED ZONE =         524342.55         SATURATED ZONE =           6097.19

 OVERALL BUDGET ERROR =           7680.64           BUDGET ERROR =              8.99


  PERCENT DISCREPANCY =              0.42    PERCENT DISCREPANCY =              0.08



1
 SUMMARY VOLUMETRIC BUDGET FOR GSFLOW 
 DATE: 12 09 1990              CUMULATIVE TIME STEP:       9
 MODFLOW STRESS PERIOD      4     CURRENT TIME STEP:      70     ITERATIONS:       6

 -----------------------------------------------------------------------------------

   CUMULATIVE VOLUMES               L**3   RATES FOR THIS TIME STEP           L**3/T
   ------------------                      ------------------------

                                     IN                                         IN
                                     --                                         --
        PRECIPITATION =        1449284.55          PRECIPITATION =                  
           STREAMFLOW =                               STREAMFLOW =                  
     GW BOUNDARY FLOW =                         GW BOUNDARY FLOW =                  


                                    OUT                                        OUT
                                    ---                                        ---
   EVAPOTRANSPIRATION =        1298380.34     EVAPOTRANSPIRATION =          13900.56
           STREAMFLOW =         668586.79             STREAMFLOW =          10914.45
     GW BOUNDARY FLOW =           2521.84       GW BOUNDARY FLOW =             35.65

   INFLOWS - OUTFLOWS =        -520204.42     INFLOWS - OUTFLOWS =         -24850.66
             --------                                   --------

 TOTAL STORAGE CHANGE =        -532384.71         STORAGE CHANGE =         -24945.19
       --------------                             --------------
         LAND SURFACE =          67215.41           LAND SURFACE =         -45889.70
            SOIL ZONE =         900826.21              SOIL ZONE =          33513.33
     UNSATURATED ZONE =       -2061290.62       UNSATURATED ZONE =         -16494.65
       SATURATED ZONE =         560864.17         SATURATED ZONE =           3925.82

 OVERALL BUDGET ERROR =          12180.30           BUDGET ERROR =             94.53


  PERCENT DISCREPANCY =              0.62    PERCENT DISCREPANCY =              0.38



1
 SUMMARY VOLUMETRIC BUDGET FOR GSFLOW 
 DATE: 12 16 1990              CUMULATIVE TIME STEP:      16
 MODFLOW STRESS PERIOD      4     CURRENT TIME STEP:      77     ITERATIONS:       5

 -----------------------------------------------------------------------------------

   CUMULATIVE VOLUMES               L**3   RATES FOR THIS TIME STEP           L**3/T
   ------------------                      ------------------------

                                     IN                                         IN
                                     --                                         --
        PRECIPITATION =        1804962.84          PRECIPITATION =                  
           STREAMFLOW =                               STREAMFLOW =                  
     GW BOUNDARY FLOW =                         GW BOUNDARY FLOW =                  


                                    OUT                                        OUT
                                    ---                                        ---
   EVAPOTRANSPIRATION =        1326721.06     EVAPOTRANSPIRATION =                  
           STREAMFLOW =         748222.62             STREAMFLOW =          11507.78
     GW BOUNDARY FLOW =           2771.25       GW BOUNDARY FLOW =             35.61

   INFLOWS - OUTFLOWS =        -272752.09     INFLOWS - OUTFLOWS =         -11543.39
             --------                                   --------

 TOTAL STORAGE CHANGE =        -287246.00         STORAGE CHANGE =         -11554.52
       --------------                             --------------
         LAND SURFACE =         252566.26           LAND SURFACE =                  
            SOIL ZONE =        1043228.74              SOIL ZONE =            -18.93
     UNSATURATED ZONE =       -2174632.18       UNSATURATED ZONE =         -15930.06
       SATURATED ZONE =         591591.02         SATURATED ZONE =           4394.46

 OVERALL BUDGET ERROR =          14493.91           BUDGET ERROR =             11.13


  PERCENT DISCREPANCY =              0.70    PERCENT DISCREPANCY =              0.10



1
 SUMMARY VOLUMETRIC BUDGET FOR GSFLOW 
 DATE: 12 23 1990              CUMULATIVE TIME STEP:      23
 MODFLOW STRESS PERIOD      4     CURRENT TIME STEP:      84     ITERATIONS:       6

 -----------------------------------------------------------------------------------

   CUMULATIVE VOLUMES               L**3   RATES FOR THIS TIME STEP           L**3/T
   ------------------                      ------------------------

                                     IN                                         IN
                                     --                                         --
        PRECIPITATION =        2276236.55          PRECIPITATION =                  
           STREAMFLOW =                               STREAMFLOW =                  
     GW BOUNDARY FLOW =              0.08       GW BOUNDARY FLOW =              0.04


                                    OUT                                        OUT
                                    ---                                        ---
   EVAPOTRANSPIRATION =        1327783.01     EVAPOTRANSPIRATION =                  
           STREAMFLOW =         828969.64             STREAMFLOW =          11559.19
     GW BOUNDARY FLOW =           3020.28       GW BOUNDARY FLOW =             35.57

   INFLOWS - OUTFLOWS =         116463.69     INFLOWS - OUTFLOWS =         -11594.72
             --------                                   --------

 TOTAL STORAGE CHANGE =         101900.88         STORAGE CHANGE =         -11604.20
       --------------                             --------------
         LAND SURFACE =         722784.34           LAND SURFACE =                  
            SOIL ZONE =        1043422.53              SOIL ZONE =             55.61
     UNSATURATED ZONE =       -2283829.92       UNSATURATED ZONE =         -15355.21
       SATURATED ZONE =         619523.74         SATURATED ZONE =           3695.39

 OVERALL BUDGET ERROR =          14562.81           BUDGET ERROR =              9.48


  PERCENT DISCREPANCY =              0.64    PERCENT DISCREPANCY =              0.08



1
 SUMMARY VOLUMETRIC BUDGET FOR GSFLOW 
 DATE: 12 30 1990              CUMULATIVE TIME STEP:      30
 MODFLOW STRESS PERIOD      4     CURRENT TIME STEP:      91     ITERATIONS:       5

 -----------------------------------------------------------------------------------

   CUMULATIVE VOLUMES               L**3   RATES FOR THIS TIME STEP           L**3/T
   ------------------                      ------------------------

                                     IN                                         IN
                                     --                                         --
        PRECIPITATION =        2276236.55          PRECIPITATION =                  
           STREAMFLOW =                               STREAMFLOW =                  
     GW BOUNDARY FLOW =              0.77       GW BOUNDARY FLOW =              0.14


                                    OUT                                        OUT
                                    ---                                        ---
   EVAPOTRANSPIRATION =        1328353.17     EVAPOTRANSPIRATION =                  
           STREAMFLOW =         910143.34             STREAMFLOW =          11628.12
     GW BOUNDARY FLOW =           3269.39       GW BOUNDARY FLOW =             35.60

   INFLOWS - OUTFLOWS =          34471.42     INFLOWS - OUTFLOWS =         -11663.58
             --------                                   --------

 TOTAL STORAGE CHANGE =          19850.23         STORAGE CHANGE =         -11671.59
       --------------                             --------------
         LAND SURFACE =         722216.94           LAND SURFACE =                  
            SOIL ZONE =        1044001.84              SOIL ZONE =            100.87
     UNSATURATED ZONE =       -2389115.78       UNSATURATED ZONE =         -14806.24
       SATURATED ZONE =         642746.99         SATURATED ZONE =           3033.78

 OVERALL BUDGET ERROR =          14621.19           BUDGET ERROR =              8.01


  PERCENT DISCREPANCY =              0.64    PERCENT DISCREPANCY =              0.07



1
 SUMMARY VOLUMETRIC BUDGET FOR GSFLOW 
 DATE: 01 06 1991              CUMULATIVE TIME STEP:       6
 MODFLOW STRESS PERIOD      5     CURRENT TIME STEP:      98     ITERATIONS:       5

 -----------------------------------------------------------------------------------

   CUMULATIVE VOLUMES               L**3   RATES FOR THIS TIME STEP           L**3/T
   ------------------                      ------------------------

                                     IN                                         IN
                                     --                                         --
        PRECIPITATION =        2276236.55          PRECIPITATION =                  
           STREAMFLOW =                               STREAMFLOW =                  
     GW BOUNDARY FLOW =              2.09       GW BOUNDARY FLOW =              0.22


                                    OUT                                        OUT
                                    ---                                        ---
   EVAPOTRANSPIRATION =        1355436.87     EVAPOTRANSPIRATION =           3191.05
           STREAMFLOW =         991984.52             STREAMFLOW =          11732.68
     GW BOUNDARY FLOW =           3519.28       GW BOUNDARY FLOW =             35.75

   INFLOWS - OUTFLOWS =         -74702.03     INFLOWS - OUTFLOWS =         -14959.26
             --------                                   --------

 TOTAL STORAGE CHANGE =         -91950.06         STORAGE CHANGE =         -15093.50
       --------------                             --------------
         LAND SURFACE =         592099.77           LAND SURFACE =          -8106.31
            SOIL ZONE =        1145220.46              SOIL ZONE =           4886.73
     UNSATURATED ZONE =       -2490467.93       UNSATURATED ZONE =         -14245.97
       SATURATED ZONE =         661197.37         SATURATED ZONE =           2372.04

 OVERALL BUDGET ERROR =          17248.03           BUDGET ERROR =            134.24


  PERCENT DISCREPANCY =              0.73    PERCENT DISCREPANCY =              0.89



1
 SUMMARY VOLUMETRIC BUDGET FOR GSFLOW 
 DATE: 01 13 1991              CUMULATIVE TIME STEP:      13
 MODFLOW STRESS PERIOD      5     CURRENT TIME STEP:     105     ITERATIONS:       6

 -----------------------------------------------------------------------------------

   CUMULATIVE VOLUMES               L**3   RATES FOR THIS TIME STEP           L**3/T
   ------------------                      ------------------------

                                     IN                                         IN
                                     --                                         --
        PRECIPITATION =        2596386.94          PRECIPITATION =          10327.43
           STREAMFLOW =                               STREAMFLOW =                  
     GW BOUNDARY FLOW =              4.01       GW BOUNDARY FLOW =              0.31


                                    OUT                                        OUT
                                    ---                                        ---
   EVAPOTRANSPIRATION =        1422384.99     EVAPOTRANSPIRATION =          18641.11
           STREAMFLOW =        1074248.61             STREAMFLOW =          11729.39
     GW BOUNDARY FLOW =           3769.50       GW BOUNDARY FLOW =             35.73

   INFLOWS - OUTFLOWS =          95987.86     INFLOWS - OUTFLOWS =         -20078.49
             --------                                   --------

 TOTAL STORAGE CHANGE =          73634.70         STORAGE CHANGE =         -21347.66
       --------------                             --------------
         LAND SURFACE =         529885.07           LAND SURFACE =        -135264.71
            SOIL ZONE =        1457483.86              SOIL ZONE =         126487.53
     UNSATURATED ZONE =       -2587755.93       UNSATURATED ZONE =         -13692.81
       SATURATED ZONE =         674021.37         SATURATED ZONE =           1122.32

 OVERALL BUDGET ERROR =          22353.16           BUDGET ERROR =           1269.17

  ***WARNING, FLUX RATES OFF > 3%

  PERCENT DISCREPANCY =              0.86    PERCENT DISCREPANCY =              4.09



1
 SUMMARY VOLUMETRIC BUDGET FOR GSFLOW 
 DATE: 01 20 1991              CUMULATIVE TIME STEP:      20
 MODFLOW STRESS PERIOD      5     CURRENT TIME STEP:     112     ITERATIONS:       5

 -----------------------------------------------------------------------------------

   CUMULATIVE VOLUMES               L**3   RATES FOR THIS TIME STEP           L**3/T
   ------------------                      ------------------------

                                     IN                                         IN
                                     --                                         --
        PRECIPITATION =        2596386.94          PRECIPITATION =                  
           STREAMFLOW =                               STREAMFLOW =                  
     GW BOUNDARY FLOW =              6.54       GW BOUNDARY FLOW =              0.40


                                    OUT                                        OUT
                                    ---                                        ---
   EVAPOTRANSPIRATION =        1499760.57     EVAPOTRANSPIRATION =           2462.53
           STREAMFLOW =        1157383.57             STREAMFLOW =          11895.34
     GW BOUNDARY FLOW =           4019.75       GW BOUNDARY FLOW =             35.75

   INFLOWS - OUTFLOWS =         -64770.41     INFLOWS - OUTFLOWS =         -14393.22
             --------                                   --------

 TOTAL STORAGE CHANGE =         -87898.18         STORAGE CHANGE =         -14388.40
       --------------                             --------------
         LAND SURFACE =         356897.60           LAND SURFACE =           -433.81
            SOIL ZONE =        1553071.99              SOIL ZONE =          -1962.89
     UNSATURATED ZONE =       -2681151.13       UNSATURATED ZONE =         -13122.27
       SATURATED ZONE =         683282.97         SATURATED ZONE =           1130.56

 OVERALL BUDGET ERROR =          23127.78           BUDGET ERROR =             -4.82


  PERCENT DISCREPANCY =              0.87    PERCENT DISCREPANCY =             -0.03



1
 SUMMARY VOLUMETRIC BUDGET FOR GSFLOW 
 DATE: 01 27 1991              CUMULATIVE TIME STEP:      27
 MODFLOW STRESS PERIOD      5     CURRENT TIME STEP:     119     ITERATIONS:       5

 -----------------------------------------------------------------------------------

   CUMULATIVE VOLUMES               L**3   RATES FOR THIS TIME STEP           L**3/T
   ------------------                      ------------------------

                                     IN                                         IN
                                     --                                         --
        PRECIPITATION =        2596386.94          PRECIPITATION =                  
           STREAMFLOW =                               STREAMFLOW =                  
     GW BOUNDARY FLOW =              9.65       GW BOUNDARY FLOW =              0.48


                                    OUT                                        OUT
                                    ---                                        ---
   EVAPOTRANSPIRATION =        1525662.44     EVAPOTRANSPIRATION =           1702.93
           STREAMFLOW =        1240658.51             STREAMFLOW =          11918.86
     GW BOUNDARY FLOW =           4269.96       GW BOUNDARY FLOW =             35.74

   INFLOWS - OUTFLOWS =        -174194.32     INFLOWS - OUTFLOWS =         -13657.06
             --------                                   --------

 TOTAL STORAGE CHANGE =        -197529.75         STORAGE CHANGE =         -13666.98
       --------------                             --------------
         LAND SURFACE =         323033.09           LAND SURFACE =           -547.84
            SOIL ZONE =        1561720.67              SOIL ZONE =          -1066.22
     UNSATURATED ZONE =       -2771069.09       UNSATURATED ZONE =         -12627.99
       SATURATED ZONE =         688785.13         SATURATED ZONE =            575.06

 OVERALL BUDGET ERROR =          23335.43           BUDGET ERROR =              9.92


  PERCENT DISCREPANCY =              0.84    PERCENT DISCREPANCY =              0.07



1
 SUMMARY VOLUMETRIC BUDGET FOR GSFLOW 
 DATE: 02 03 1991              CUMULATIVE TIME STEP:       3
 MODFLOW STRESS PERIOD      6     CURRENT TIME STEP:     126     ITERATIONS:       6

 -----------------------------------------------------------------------------------

   CUMULATIVE VOLUMES               L**3   RATES FOR THIS TIME STEP           L**3/T
   ------------------                      ------------------------

                                     IN                                         IN
                                     --                                         --
        PRECIPITATION =        3228422.31          PRECIPITATION =          30459.53
           STREAMFLOW =                               STREAMFLOW =                  
     GW BOUNDARY FLOW =             13.30       GW BOUNDARY FLOW =              0.55


                                    OUT                                        OUT
                                    ---                                        ---
   EVAPOTRANSPIRATION =        1632680.55     EVAPOTRANSPIRATION =          21403.91
           STREAMFLOW =        1325524.21             STREAMFLOW =          12224.43
     GW BOUNDARY FLOW =           4520.09       GW BOUNDARY FLOW =             35.74

   INFLOWS - OUTFLOWS =         265710.77     INFLOWS - OUTFLOWS =          -3203.99
             --------                                   --------

 TOTAL STORAGE CHANGE =         235234.28         STORAGE CHANGE =          -3481.56
       --------------                             --------------
         LAND SURFACE =         157683.43           LAND SURFACE =         -26376.35
            SOIL ZONE =        2245243.41              SOIL ZONE =          35088.90
     UNSATURATED ZONE =       -2857674.75       UNSATURATED ZONE =         -12195.04
       SATURATED ZONE =         689981.68         SATURATED ZONE =              0.92

 OVERALL BUDGET ERROR =          30476.49           BUDGET ERROR =            277.57


  PERCENT DISCREPANCY =              0.95    PERCENT DISCREPANCY =              0.82



1
 SUMMARY VOLUMETRIC BUDGET FOR GSFLOW 
 DATE: 02 10 1991              CUMULATIVE TIME STEP:      10
 MODFLOW STRESS PERIOD      6     CURRENT TIME STEP:     133     ITERATIONS:       5

 -----------------------------------------------------------------------------------

   CUMULATIVE VOLUMES               L**3   RATES FOR THIS TIME STEP           L**3/T
   ------------------                      ------------------------

                                     IN                                         IN
                                     --                                         --
        PRECIPITATION =        3510173.01          PRECIPITATION =                  
           STREAMFLOW =                               STREAMFLOW =                  
     GW BOUNDARY FLOW =             17.48       GW BOUNDARY FLOW =              0.63


                                    OUT                                        OUT
                                    ---                                        ---
   EVAPOTRANSPIRATION =        1800463.13     EVAPOTRANSPIRATION =          25669.07
           STREAMFLOW =        1411574.04             STREAMFLOW =          12153.54
     GW BOUNDARY FLOW =           4770.17       GW BOUNDARY FLOW =             35.72

   INFLOWS - OUTFLOWS =         293383.15     INFLOWS - OUTFLOWS =         -37857.70
             --------                                   --------

 TOTAL STORAGE CHANGE =         260345.16         STORAGE CHANGE =         -37774.37
       --------------                             --------------
         LAND SURFACE =          75877.11           LAND SURFACE =          -8469.89
            SOIL ZONE =        2437135.38              SOIL ZONE =         -17106.16
     UNSATURATED ZONE =       -2940840.36       UNSATURATED ZONE =         -11687.33
       SATURATED ZONE =         688172.43         SATURATED ZONE =           -511.00

 OVERALL BUDGET ERROR =          33037.99           BUDGET ERROR =            -83.33


  PERCENT DISCREPANCY =              0.95    PERCENT DISCREPANCY =             -0.22



1
 SUMMARY VOLUMETRIC BUDGET FOR GSFLOW 
 DATE: 02 17 1991              CUMULATIVE TIME STEP:      17
 MODFLOW STRESS PERIOD      6     CURRENT TIME STEP:     140     ITERATIONS:       5

 -----------------------------------------------------------------------------------

   CUMULATIVE VOLUMES               L**3   RATES FOR THIS TIME STEP           L**3/T
   ------------------                      ------------------------

                                     IN                                         IN
                                     --                                         --
        PRECIPITATION =        3510173.01          PRECIPITATION =                  
           STREAMFLOW =                               STREAMFLOW =                  
     GW BOUNDARY FLOW =             22.15       GW BOUNDARY FLOW =              0.70


                                    OUT                                        OUT
                                    ---                                        ---
   EVAPOTRANSPIRATION =        2043522.72     EVAPOTRANSPIRATION =          23705.65
           STREAMFLOW =        1496222.62             STREAMFLOW =          12092.44
     GW BOUNDARY FLOW =           5020.10       GW BOUNDARY FLOW =             35.68

   INFLOWS - OUTFLOWS =         -34570.28     INFLOWS - OUTFLOWS =         -35833.07
             --------                                   --------

 TOTAL STORAGE CHANGE =         -66803.22         STORAGE CHANGE =         -35753.37
       --------------                             --------------
         LAND SURFACE =          17890.99           LAND SURFACE =          -1143.67
            SOIL ZONE =        2253392.23              SOIL ZONE =         -22469.67
     UNSATURATED ZONE =       -3020457.59       UNSATURATED ZONE =         -11090.83
       SATURATED ZONE =         682370.47         SATURATED ZONE =          -1049.21

 OVERALL BUDGET ERROR =          32232.94           BUDGET ERROR =            -79.71


  PERCENT DISCREPANCY =              0.91    PERCENT DISCREPANCY =             -0.22



1
 SUMMARY VOLUMETRIC BUDGET FOR GSFLOW 
 DATE: 02 24 1991              CUMULATIVE TIME STEP:      24
 MODFLOW STRESS PERIOD      6     CURRENT TIME STEP:     147     ITERATIONS:       5

 -----------------------------------------------------------------------------------

   CUMULATIVE VOLUMES               L**3   RATES FOR THIS TIME STEP           L**3/T
   ------------------                      ------------------------

                                     IN                                         IN
                                     --                                         --
        PRECIPITATION =        3510173.01          PRECIPITATION =                  
           STREAMFLOW =                               STREAMFLOW =                  
     GW BOUNDARY FLOW =             27.30       GW BOUNDARY FLOW =              0.76


                                    OUT                                        OUT
                                    ---                                        ---
   EVAPOTRANSPIRATION =        2256963.30     EVAPOTRANSPIRATION =          21630.12
           STREAMFLOW =        1580413.13             STREAMFLOW =          11999.82
     GW BOUNDARY FLOW =           5269.13       GW BOUNDARY FLOW =             35.48

   INFLOWS - OUTFLOWS =        -332445.25     INFLOWS - OUTFLOWS =         -33664.67
             --------                                   --------

 TOTAL STORAGE CHANGE =        -363953.96         STORAGE CHANGE =         -33588.64
       --------------                             --------------
         LAND SURFACE =           7435.72           LAND SURFACE =           -217.69
            SOIL ZONE =        2052165.47              SOIL ZONE =         -21119.68
     UNSATURATED ZONE =       -3096443.05       UNSATURATED ZONE =         -10680.80
       SATURATED ZONE =         672887.13         SATURATED ZONE =          -1570.48

 OVERALL BUDGET ERROR =          31508.71           BUDGET ERROR =            -76.02


  PERCENT DISCREPANCY =              0.82    PERCENT DISCREPANCY =             -0.23



1
 SUMMARY VOLUMETRIC BUDGET FOR GSFLOW 
 DATE: 03 03 1991              CUMULATIVE TIME STEP:       3
 MODFLOW STRESS PERIOD      7     CURRENT TIME STEP:     154     ITERATIONS:       5

 -----------------------------------------------------------------------------------

   CUMULATIVE VOLUMES               L**3   RATES FOR THIS TIME STEP           L**3/T
   ------------------                      ------------------------

                                     IN                                         IN
                                     --                                         --
        PRECIPITATION =        6220189.63          PRECIPITATION =        1243187.24
           STREAMFLOW =                               STREAMFLOW =                  
     GW BOUNDARY FLOW =             32.90       GW BOUNDARY FLOW =              0.83


                                    OUT                                        OUT
                                    ---                                        ---
   EVAPOTRANSPIRATION =        2409042.90     EVAPOTRANSPIRATION =           8456.22
           STREAMFLOW =        1664142.28             STREAMFLOW =          12305.91
     GW BOUNDARY FLOW =           5516.83       GW BOUNDARY FLOW =             35.34

   INFLOWS - OUTFLOWS =        2141520.52     INFLOWS - OUTFLOWS =        1222390.61
             --------                                   --------

 TOTAL STORAGE CHANGE =        2102861.28         STORAGE CHANGE =        1214770.05
       --------------                             --------------
         LAND SURFACE =        2352761.88           LAND SURFACE =         894135.84
            SOIL ZONE =        2261235.10              SOIL ZONE =         333297.37
     UNSATURATED ZONE =       -3169404.22       UNSATURATED ZONE =         -10274.14
       SATURATED ZONE =         658267.66         SATURATED ZONE =          -2389.04

 OVERALL BUDGET ERROR =          38659.23           BUDGET ERROR =           7620.56


  PERCENT DISCREPANCY =              0.62    PERCENT DISCREPANCY =              0.61



1
 SUMMARY VOLUMETRIC BUDGET FOR GSFLOW 
 DATE: 03 10 1991              CUMULATIVE TIME STEP:      10
 MODFLOW STRESS PERIOD      7     CURRENT TIME STEP:     161     ITERATIONS:       5

 -----------------------------------------------------------------------------------

   CUMULATIVE VOLUMES               L**3   RATES FOR THIS TIME STEP           L**3/T
   ------------------                      ------------------------

                                     IN                                         IN
                                     --                                         --
        PRECIPITATION =        8746030.42          PRECIPITATION =          32888.55
           STREAMFLOW =                               STREAMFLOW =                  
     GW BOUNDARY FLOW =             38.93       GW BOUNDARY FLOW =              0.89


                                    OUT                                        OUT
                                    ---                                        ---
   EVAPOTRANSPIRATION =        2482338.49     EVAPOTRANSPIRATION =           8863.51
           STREAMFLOW =        1849430.43             STREAMFLOW =          22216.33
     GW BOUNDARY FLOW =           5765.78       GW BOUNDARY FLOW =             35.45

   INFLOWS - OUTFLOWS =        4408534.65     INFLOWS - OUTFLOWS =           1774.15
             --------                                   --------

 TOTAL STORAGE CHANGE =        4355316.91         STORAGE CHANGE =           1490.82
       --------------                             --------------
         LAND SURFACE =        2523463.28           LAND SURFACE =         -14137.08
            SOIL ZONE =        4369083.27              SOIL ZONE =          18860.51
     UNSATURATED ZONE =       -3190255.28       UNSATURATED ZONE =          -1921.20
       SATURATED ZONE =         653024.58         SATURATED ZONE =          -1311.44

 OVERALL BUDGET ERROR =          53217.74           BUDGET ERROR =            283.33


  PERCENT DISCREPANCY =              0.61    PERCENT DISCREPANCY =              0.87



1
 SUMMARY VOLUMETRIC BUDGET FOR GSFLOW 
 DATE: 03 17 1991              CUMULATIVE TIME STEP:      17
 MODFLOW STRESS PERIOD      7     CURRENT TIME STEP:     168     ITERATIONS:       5

 -----------------------------------------------------------------------------------

   CUMULATIVE VOLUMES               L**3   RATES FOR THIS TIME STEP           L**3/T
   ------------------                      ------------------------

                                     IN                                         IN
                                     --                                         --
        PRECIPITATION =        9897129.71          PRECIPITATION =         157865.04
           STREAMFLOW =                               STREAMFLOW =                  
     GW BOUNDARY FLOW =             45.37       GW BOUNDARY FLOW =              0.95


                                    OUT                                        OUT
                                    ---                                        ---
   EVAPOTRANSPIRATION =        2510177.33     EVAPOTRANSPIRATION =           8079.77
           STREAMFLOW =        1992557.11             STREAMFLOW =          19797.29
     GW BOUNDARY FLOW =           6013.07       GW BOUNDARY FLOW =             35.25

   INFLOWS - OUTFLOWS =        5388427.58     INFLOWS - OUTFLOWS =         129953.68
             --------                                   --------

 TOTAL STORAGE CHANGE =        5335315.47         STORAGE CHANGE =         129998.59
       --------------                             --------------
         LAND SURFACE =        3672302.31           LAND SURFACE =         157496.61
            SOIL ZONE =        4229534.48              SOIL ZONE =         -22747.58
     UNSATURATED ZONE =       -3207208.71       UNSATURATED ZONE =          -2700.03
       SATURATED ZONE =         640686.11         SATURATED ZONE =          -2050.44

 OVERALL BUDGET ERROR =          53112.12           BUDGET ERROR =            -44.91


  PERCENT DISCREPANCY =              0.54    PERCENT DISCREPANCY =             -0.03



1
 SUMMARY VOLUMETRIC BUDGET FOR GSFLOW 
 DATE: 03 24 1991              CUMULATIVE TIME STEP:      24
 MODFLOW STRESS PERIOD      7     CURRENT TIME STEP:     175     ITERATIONS:       5

 -----------------------------------------------------------------------------------

   CUMULATIVE VOLUMES               L**3   RATES FOR THIS TIME STEP           L**3/T
   ------------------                      ------------------------

                                     IN                                         IN
                                     --                                         --
        PRECIPITATION =        1.1673D+07          PRECIPITATION =        1230031.83
           STREAMFLOW =                               STREAMFLOW =                  
     GW BOUNDARY FLOW =             52.22       GW BOUNDARY FLOW =              1.00


                                    OUT                                        OUT
                                    ---                                        ---
   EVAPOTRANSPIRATION =        2549003.61     EVAPOTRANSPIRATION =           4663.50
           STREAMFLOW =        2127079.76             STREAMFLOW =          18919.25
     GW BOUNDARY FLOW =           6259.15       GW BOUNDARY FLOW =             35.09

   INFLOWS - OUTFLOWS =        6990821.19     INFLOWS - OUTFLOWS =        1206415.00
             --------                                   --------

 TOTAL STORAGE CHANGE =        6937653.86         STORAGE CHANGE =        1206417.84
       --------------                             --------------
         LAND SURFACE =        5426161.22           LAND SURFACE =        1230031.83
            SOIL ZONE =        4116560.38              SOIL ZONE =         -17681.64
     UNSATURATED ZONE =       -3229740.27       UNSATURATED ZONE =          -3465.87
       SATURATED ZONE =         624671.05         SATURATED ZONE =          -2466.51

 OVERALL BUDGET ERROR =          53167.34           BUDGET ERROR =             -2.84


  PERCENT DISCREPANCY =              0.46    PERCENT DISCREPANCY =             -0.00



1
 SUMMARY VOLUMETRIC BUDGET FOR GSFLOW 
 DATE: 03 31 1991              CUMULATIVE TIME STEP:      31
 MODFLOW STRESS PERIOD      7     CURRENT TIME STEP:     182     ITERATIONS:       6

 -----------------------------------------------------------------------------------

   CUMULATIVE VOLUMES               L**3   RATES FOR THIS TIME STEP           L**3/T
   ------------------                      ------------------------

                                     IN                                         IN
                                     --                                         --
        PRECIPITATION =        1.2495D+07          PRECIPITATION =                  
           STREAMFLOW =                               STREAMFLOW =                  
     GW BOUNDARY FLOW =             59.46       GW BOUNDARY FLOW =              1.06


                                    OUT                                        OUT
                                    ---                                        ---
   EVAPOTRANSPIRATION =        2670768.08     EVAPOTRANSPIRATION =          48055.46
           STREAMFLOW =        2261709.42             STREAMFLOW =          22444.86
     GW BOUNDARY FLOW =           6504.26       GW BOUNDARY FLOW =             35.03

   INFLOWS - OUTFLOWS =        7556402.98     INFLOWS - OUTFLOWS =         -70534.29
             --------                                   --------

 TOTAL STORAGE CHANGE =        7502003.86         STORAGE CHANGE =         -71457.41
       --------------                             --------------
         LAND SURFACE =        5977198.26           LAND SURFACE =        -148137.48
            SOIL ZONE =        4172064.04              SOIL ZONE =          81779.72
     UNSATURATED ZONE =       -3253901.84       UNSATURATED ZONE =          -2436.94
       SATURATED ZONE =         606641.70         SATURATED ZONE =          -2662.73

 OVERALL BUDGET ERROR =          54399.12           BUDGET ERROR =            923.12


  PERCENT DISCREPANCY =              0.44    PERCENT DISCREPANCY =              1.30



1
 SUMMARY VOLUMETRIC BUDGET FOR GSFLOW 
 DATE: 04 07 1991              CUMULATIVE TIME STEP:       7
 MODFLOW STRESS PERIOD      8     CURRENT TIME STEP:     189     ITERATIONS:       7

 -----------------------------------------------------------------------------------

   CUMULATIVE VOLUMES               L**3   RATES FOR THIS TIME STEP           L**3/T
   ------------------                      ------------------------

                                     IN                                         IN
                                     --                                         --
        PRECIPITATION =        1.3018D+07          PRECIPITATION =                  
           STREAMFLOW =                               STREAMFLOW =                  
     GW BOUNDARY FLOW =             67.06       GW BOUNDARY FLOW =              1.11


                                    OUT                                        OUT
                                    ---                                        ---
   EVAPOTRANSPIRATION =        2978872.00     EVAPOTRANSPIRATION =          15960.30
           STREAMFLOW =        2584111.45             STREAMFLOW =          64508.41
     GW BOUNDARY FLOW =           6751.71       GW BOUNDARY FLOW =             35.61

   INFLOWS - OUTFLOWS =        7448068.64     INFLOWS - OUTFLOWS =         -80503.22
             --------                                   --------

 TOTAL STORAGE CHANGE =        7384449.93         STORAGE CHANGE =         -81019.30
       --------------                             --------------
         LAND SURFACE =        4335933.24           LAND SURFACE =         -73164.41
            SOIL ZONE =        5687262.57              SOIL ZONE =         -15183.11
     UNSATURATED ZONE =       -3230309.34       UNSATURATED ZONE =           9290.71
       SATURATED ZONE =         591561.51         SATURATED ZONE =          -1962.54

 OVERALL BUDGET ERROR =          63618.71           BUDGET ERROR =            516.08


  PERCENT DISCREPANCY =              0.49    PERCENT DISCREPANCY =              0.64



1
 SUMMARY VOLUMETRIC BUDGET FOR GSFLOW 
 DATE: 04 14 1991              CUMULATIVE TIME STEP:      14
 MODFLOW STRESS PERIOD      8     CURRENT TIME STEP:     196     ITERATIONS:       7

 -----------------------------------------------------------------------------------

   CUMULATIVE VOLUMES               L**3   RATES FOR THIS TIME STEP           L**3/T
   ------------------                      ------------------------

                                     IN                                         IN
                                     --                                         --
        PRECIPITATION =        1.3018D+07          PRECIPITATION =                  
           STREAMFLOW =                               STREAMFLOW =                  
     GW BOUNDARY FLOW =             74.99       GW BOUNDARY FLOW =              1.15


                                    OUT                                        OUT
                                    ---                                        ---
   EVAPOTRANSPIRATION =        3162987.42     EVAPOTRANSPIRATION =          42038.19
           STREAMFLOW =        3081940.40             STREAMFLOW =          75806.27
     GW BOUNDARY FLOW =           7001.07       GW BOUNDARY FLOW =             35.63

   INFLOWS - OUTFLOWS =        6765882.84     INFLOWS - OUTFLOWS =        -117878.94
             --------                                   --------

 TOTAL STORAGE CHANGE =        6698957.89         STORAGE CHANGE =        -118761.44
       --------------                             --------------
         LAND SURFACE =        3672284.11           LAND SURFACE =        -192335.10
            SOIL ZONE =        5616223.90              SOIL ZONE =          66838.45
     UNSATURATED ZONE =       -3168394.71       UNSATURATED ZONE =           8393.90
       SATURATED ZONE =         578842.31         SATURATED ZONE =          -1658.73

 OVERALL BUDGET ERROR =          66924.95           BUDGET ERROR =            882.50


  PERCENT DISCREPANCY =              0.52    PERCENT DISCREPANCY =              0.75



1
 SUMMARY VOLUMETRIC BUDGET FOR GSFLOW 
 DATE: 04 21 1991              CUMULATIVE TIME STEP:      21
 MODFLOW STRESS PERIOD      8     CURRENT TIME STEP:     203     ITERATIONS:       9

 -----------------------------------------------------------------------------------

   CUMULATIVE VOLUMES               L**3   RATES FOR THIS TIME STEP           L**3/T
   ------------------                      ------------------------

                                     IN                                         IN
                                     --                                         --
        PRECIPITATION =        1.3034D+07          PRECIPITATION =                  
           STREAMFLOW =                               STREAMFLOW =                  
     GW BOUNDARY FLOW =             83.21       GW BOUNDARY FLOW =              1.19


                                    OUT                                        OUT
                                    ---                                        ---
   EVAPOTRANSPIRATION =        3416628.28     EVAPOTRANSPIRATION =          46896.67
           STREAMFLOW =        3654651.27             STREAMFLOW =          93518.02
     GW BOUNDARY FLOW =           7250.65       GW BOUNDARY FLOW =             35.76

   INFLOWS - OUTFLOWS =        5955615.11     INFLOWS - OUTFLOWS =        -140449.26
             --------                                   --------

 TOTAL STORAGE CHANGE =        5884069.28         STORAGE CHANGE =        -141202.70
       --------------                             --------------
         LAND SURFACE =        2500870.94           LAND SURFACE =        -216968.59
            SOIL ZONE =        5920180.89              SOIL ZONE =          66481.43
     UNSATURATED ZONE =       -3104711.59       UNSATURATED ZONE =          10621.30
       SATURATED ZONE =         567726.41         SATURATED ZONE =          -1336.89

 OVERALL BUDGET ERROR =          71545.83           BUDGET ERROR =            753.44


  PERCENT DISCREPANCY =              0.55    PERCENT DISCREPANCY =              0.54



1
 SUMMARY VOLUMETRIC BUDGET FOR GSFLOW 
 DATE: 04 28 1991              CUMULATIVE TIME STEP:      28
 MODFLOW STRESS PERIOD      8     CURRENT TIME STEP:     210     ITERATIONS:       6

 -----------------------------------------------------------------------------------

   CUMULATIVE VOLUMES               L**3   RATES FOR THIS TIME STEP           L**3/T
   ------------------                      ------------------------

                                     IN                                         IN
                                     --                                         --
        PRECIPITATION =        1.3303D+07          PRECIPITATION =                  
           STREAMFLOW =                               STREAMFLOW =                  
     GW BOUNDARY FLOW =             91.70       GW BOUNDARY FLOW =              1.23


                                    OUT                                        OUT
                                    ---                                        ---
   EVAPOTRANSPIRATION =        3685056.03     EVAPOTRANSPIRATION =          58233.50
           STREAMFLOW =        4326033.23             STREAMFLOW =          95185.43
     GW BOUNDARY FLOW =           7500.80       GW BOUNDARY FLOW =             35.69

   INFLOWS - OUTFLOWS =        5284932.15     INFLOWS - OUTFLOWS =        -153453.39
             --------                                   --------

 TOTAL STORAGE CHANGE =        5209709.67         STORAGE CHANGE =        -153707.72
       --------------                             --------------
         LAND SURFACE =        1748447.64           LAND SURFACE =        -137153.52
            SOIL ZONE =        5929440.93              SOIL ZONE =         -25948.05
     UNSATURATED ZONE =       -3029043.12       UNSATURATED ZONE =          10364.11
       SATURATED ZONE =         560861.21         SATURATED ZONE =           -970.32

 OVERALL BUDGET ERROR =          75222.48           BUDGET ERROR =            254.34


  PERCENT DISCREPANCY =              0.57    PERCENT DISCREPANCY =              0.17



1
 SUMMARY VOLUMETRIC BUDGET FOR GSFLOW 
 DATE: 05 05 1991              CUMULATIVE TIME STEP:       5
 MODFLOW STRESS PERIOD      9     CURRENT TIME STEP:     217     ITERATIONS:      72

 -----------------------------------------------------------------------------------

   CUMULATIVE VOLUMES               L**3   RATES FOR THIS TIME STEP           L**3/T
   ------------------                      ------------------------

                                     IN                                         IN
                                     --                                         --
        PRECIPITATION =        1.3510D+07          PRECIPITATION =                  
           STREAMFLOW =                               STREAMFLOW =                  
     GW BOUNDARY FLOW =            100.46       GW BOUNDARY FLOW =              1.27


                                    OUT                                        OUT
                                    ---                                        ---
   EVAPOTRANSPIRATION =        4062592.78     EVAPOTRANSPIRATION =          90413.56
           STREAMFLOW =        4934813.10             STREAMFLOW =          86681.52
     GW BOUNDARY FLOW =           7749.41       GW BOUNDARY FLOW =             35.45

   INFLOWS - OUTFLOWS =        4504653.30     INFLOWS - OUTFLOWS =        -177129.25
             --------                                   --------

 TOTAL STORAGE CHANGE =        4427946.50         STORAGE CHANGE =        -177225.10
       --------------                             --------------
         LAND SURFACE =        1036420.07           LAND SURFACE =        -150153.36
            SOIL ZONE =        5800828.44              SOIL ZONE =         -36030.14
     UNSATURATED ZONE =       -2964335.33       UNSATURATED ZONE =           7939.74
       SATURATED ZONE =         555029.88         SATURATED ZONE =           1018.59

 OVERALL BUDGET ERROR =          76706.80           BUDGET ERROR =             95.85


  PERCENT DISCREPANCY =              0.57    PERCENT DISCREPANCY =              0.05



1
 SUMMARY VOLUMETRIC BUDGET FOR GSFLOW 
 DATE: 05 12 1991              CUMULATIVE TIME STEP:      12
 MODFLOW STRESS PERIOD      9     CURRENT TIME STEP:     224     ITERATIONS:       7

 -----------------------------------------------------------------------------------

   CUMULATIVE VOLUMES               L**3   RATES FOR THIS TIME STEP           L**3/T
   ------------------                      ------------------------

                                     IN                                         IN
                                     --                                         --
        PRECIPITATION =        1.4029D+07          PRECIPITATION =                  
           STREAMFLOW =                               STREAMFLOW =                  
     GW BOUNDARY FLOW =            109.48       GW BOUNDARY FLOW =              1.31


                                    OUT                                        OUT
                                    ---                                        ---
   EVAPOTRANSPIRATION =        4458216.89     EVAPOTRANSPIRATION =          68953.88
           STREAMFLOW =        5502328.35             STREAMFLOW =          84252.46
     GW BOUNDARY FLOW =           7996.29       GW BOUNDARY FLOW =             35.23

   INFLOWS - OUTFLOWS =        4060790.10     INFLOWS - OUTFLOWS =        -153240.27
             --------                                   --------

 TOTAL STORAGE CHANGE =        3982137.11         STORAGE CHANGE =        -153122.12
       --------------                             --------------
         LAND SURFACE =         579124.41           LAND SURFACE =        -205427.93
            SOIL ZONE =        5760559.83              SOIL ZONE =          45111.88
     UNSATURATED ZONE =       -2903984.11       UNSATURATED ZONE =           8434.90
       SATURATED ZONE =         546433.12         SATURATED ZONE =          -1241.03

 OVERALL BUDGET ERROR =          78652.99           BUDGET ERROR =           -118.14


  PERCENT DISCREPANCY =              0.56    PERCENT DISCREPANCY =             -0.08



1
 SUMMARY VOLUMETRIC BUDGET FOR GSFLOW 
 DATE: 05 19 1991              CUMULATIVE TIME STEP:      19
 MODFLOW STRESS PERIOD      9     CURRENT TIME STEP:     231     ITERATIONS:       7

 -----------------------------------------------------------------------------------

   CUMULATIVE VOLUMES               L**3   RATES FOR THIS TIME STEP           L**3/T
   ------------------                      ------------------------

                                     IN                                         IN
                                     --                                         --
        PRECIPITATION =        1.4365D+07          PRECIPITATION =                  
           STREAMFLOW =                               STREAMFLOW =                  
     GW BOUNDARY FLOW =            118.77       GW BOUNDARY FLOW =              1.34


                                    OUT                                        OUT
                                    ---                                        ---
   EVAPOTRANSPIRATION =        4896892.05     EVAPOTRANSPIRATION =          20444.02
           STREAMFLOW =        5994752.65             STREAMFLOW =          62340.87
     GW BOUNDARY FLOW =           8240.97       GW BOUNDARY FLOW =             34.77

   INFLOWS - OUTFLOWS =        3465611.41     INFLOWS - OUTFLOWS =         -82818.31
             --------                                   --------

 TOTAL STORAGE CHANGE =        3385913.51         STORAGE CHANGE =         -82788.97
       --------------                             --------------
         LAND SURFACE =         228252.15           LAND SURFACE =         -22354.64
            SOIL ZONE =        5477544.81              SOIL ZONE =         -64491.93
     UNSATURATED ZONE =       -2856837.88       UNSATURATED ZONE =           5430.60
       SATURATED ZONE =         536950.11         SATURATED ZONE =          -1373.05

 OVERALL BUDGET ERROR =          79697.91           BUDGET ERROR =            -29.34


  PERCENT DISCREPANCY =              0.56    PERCENT DISCREPANCY =             -0.04



1
 SUMMARY VOLUMETRIC BUDGET FOR GSFLOW 
 DATE: 05 26 1991              CUMULATIVE TIME STEP:      26
 MODFLOW STRESS PERIOD      9     CURRENT TIME STEP:     238     ITERATIONS:       6

 -----------------------------------------------------------------------------------

   CUMULATIVE VOLUMES               L**3   RATES FOR THIS TIME STEP           L**3/T
   ------------------                      ------------------------

                                     IN                                         IN
                                     --                                         --
        PRECIPITATION =        1.4426D+07          PRECIPITATION =                  
           STREAMFLOW =                               STREAMFLOW =                  
     GW BOUNDARY FLOW =            128.34       GW BOUNDARY FLOW =              1.39


                                    OUT                                        OUT
                                    ---                                        ---
   EVAPOTRANSPIRATION =        5581537.27     EVAPOTRANSPIRATION =          76900.78
           STREAMFLOW =        6348528.92             STREAMFLOW =          37363.27
     GW BOUNDARY FLOW =           8482.43       GW BOUNDARY FLOW =             34.21

   INFLOWS - OUTFLOWS =        2488077.33     INFLOWS - OUTFLOWS =        -114296.87
             --------                                   --------

 TOTAL STORAGE CHANGE =        2408379.35         STORAGE CHANGE =        -114408.00
       --------------                             --------------
         LAND SURFACE =          55233.90           LAND SURFACE =          -8157.37
            SOIL ZONE =        4665534.37              SOIL ZONE =        -103909.04
     UNSATURATED ZONE =       -2837591.34       UNSATURATED ZONE =           -296.09
       SATURATED ZONE =         525197.67         SATURATED ZONE =          -2045.57

 OVERALL BUDGET ERROR =          79697.97           BUDGET ERROR =            111.13


  PERCENT DISCREPANCY =              0.55    PERCENT DISCREPANCY =              0.10



1
 SUMMARY VOLUMETRIC BUDGET FOR GSFLOW 
 DATE: 06 02 1991              CUMULATIVE TIME STEP:       2
 MODFLOW STRESS PERIOD     10     CURRENT TIME STEP:     245     ITERATIONS:       6

 -----------------------------------------------------------------------------------

   CUMULATIVE VOLUMES               L**3   RATES FOR THIS TIME STEP           L**3/T
   ------------------                      ------------------------

                                     IN                                         IN
                                     --                                         --
        PRECIPITATION =        1.4671D+07          PRECIPITATION =                  
           STREAMFLOW =                               STREAMFLOW =                  
     GW BOUNDARY FLOW =            138.21       GW BOUNDARY FLOW =              1.43


                                    OUT                                        OUT
                                    ---                                        ---
   EVAPOTRANSPIRATION =        6170721.34     EVAPOTRANSPIRATION =         127566.24
           STREAMFLOW =        6575492.81             STREAMFLOW =          28346.06
     GW BOUNDARY FLOW =           8720.59       GW BOUNDARY FLOW =             33.88

   INFLOWS - OUTFLOWS =        1916178.27     INFLOWS - OUTFLOWS =        -155944.75
             --------                                   --------

 TOTAL STORAGE CHANGE =        1836898.82         STORAGE CHANGE =        -155739.29
       --------------                             --------------
         LAND SURFACE =          19760.70           LAND SURFACE =          -4094.13
            SOIL ZONE =        4160831.65              SOIL ZONE =        -145898.52
     UNSATURATED ZONE =       -2851679.28       UNSATURATED ZONE =          -2959.32
       SATURATED ZONE =         507980.55         SATURATED ZONE =          -2787.39

 OVERALL BUDGET ERROR =          79279.45           BUDGET ERROR =           -205.46


  PERCENT DISCREPANCY =              0.54    PERCENT DISCREPANCY =             -0.13



1
 SUMMARY VOLUMETRIC BUDGET FOR GSFLOW 
 DATE: 06 09 1991              CUMULATIVE TIME STEP:       9
 MODFLOW STRESS PERIOD     10     CURRENT TIME STEP:     252     ITERATIONS:       7

 -----------------------------------------------------------------------------------

   CUMULATIVE VOLUMES               L**3   RATES FOR THIS TIME STEP           L**3/T
   ------------------                      ------------------------

                                     IN                                         IN
                                     --                                         --
        PRECIPITATION =        1.4671D+07          PRECIPITATION =                  
           STREAMFLOW =                               STREAMFLOW =                  
     GW BOUNDARY FLOW =            148.37       GW BOUNDARY FLOW =              1.47


                                    OUT                                        OUT
                                    ---                                        ---
   EVAPOTRANSPIRATION =        6959200.86     EVAPOTRANSPIRATION =         172470.54
           STREAMFLOW =        6733778.48             STREAMFLOW =          19079.93
     GW BOUNDARY FLOW =           8956.23       GW BOUNDARY FLOW =             33.52

   INFLOWS - OUTFLOWS =         969187.60     INFLOWS - OUTFLOWS =        -191582.52
             --------                                   --------

 TOTAL STORAGE CHANGE =         891779.71         STORAGE CHANGE =        -190834.26
       --------------                             --------------
         LAND SURFACE =           3957.39           LAND SURFACE =          -2186.13
            SOIL ZONE =        3289597.16              SOIL ZONE =        -178784.06
     UNSATURATED ZONE =       -2886612.26       UNSATURATED ZONE =          -6064.17
       SATURATED ZONE =         484831.77         SATURATED ZONE =          -3799.96

 OVERALL BUDGET ERROR =          77407.89           BUDGET ERROR =           -748.26


  PERCENT DISCREPANCY =              0.53    PERCENT DISCREPANCY =             -0.39



1
 SUMMARY VOLUMETRIC BUDGET FOR GSFLOW 
 DATE: 06 16 1991              CUMULATIVE TIME STEP:      16
 MODFLOW STRESS PERIOD     10     CURRENT TIME STEP:     259     ITERATIONS:       6

 -----------------------------------------------------------------------------------

   CUMULATIVE VOLUMES               L**3   RATES FOR THIS TIME STEP           L**3/T
   ------------------                      ------------------------

                                     IN                                         IN
                                     --                                         --
        PRECIPITATION =        1.4671D+07          PRECIPITATION =                  
           STREAMFLOW =                               STREAMFLOW =                  
     GW BOUNDARY FLOW =            158.85       GW BOUNDARY FLOW =              1.52


                                    OUT                                        OUT
                                    ---                                        ---
   EVAPOTRANSPIRATION =        7975835.43     EVAPOTRANSPIRATION =         117014.81
           STREAMFLOW =        6836766.94             STREAMFLOW =          12810.82
     GW BOUNDARY FLOW =           9188.32       GW BOUNDARY FLOW =             33.04

   INFLOWS - OUTFLOWS =        -150657.04     INFLOWS - OUTFLOWS =        -129857.16
             --------                                   --------

 TOTAL STORAGE CHANGE =        -222612.53         STORAGE CHANGE =        -129072.52
       --------------                             --------------
         LAND SURFACE =            106.65           LAND SURFACE =            -66.98
            SOIL ZONE =        2293347.08              SOIL ZONE =        -107773.49
     UNSATURATED ZONE =       -2968721.57       UNSATURATED ZONE =         -15782.91
       SATURATED ZONE =         452649.20         SATURATED ZONE =          -5449.20

 OVERALL BUDGET ERROR =          71955.49           BUDGET ERROR =           -784.64


  PERCENT DISCREPANCY =              0.48    PERCENT DISCREPANCY =             -0.61



1
 SUMMARY VOLUMETRIC BUDGET FOR GSFLOW 
 DATE: 06 23 1991              CUMULATIVE TIME STEP:      23
 MODFLOW STRESS PERIOD     10     CURRENT TIME STEP:     266     ITERATIONS:       7

 -----------------------------------------------------------------------------------

   CUMULATIVE VOLUMES               L**3   RATES FOR THIS TIME STEP           L**3/T
   ------------------                      ------------------------

                                     IN                                         IN
                                     --                                         --
        PRECIPITATION =        1.4671D+07          PRECIPITATION =                  
           STREAMFLOW =                               STREAMFLOW =                  
     GW BOUNDARY FLOW =            169.63       GW BOUNDARY FLOW =              1.56


                                    OUT                                        OUT
                                    ---                                        ---
   EVAPOTRANSPIRATION =        8518351.74     EVAPOTRANSPIRATION =          38762.73
           STREAMFLOW =        6919511.81             STREAMFLOW =          12050.78
     GW BOUNDARY FLOW =           9418.90       GW BOUNDARY FLOW =             32.91

   INFLOWS - OUTFLOWS =        -776138.02     INFLOWS - OUTFLOWS =         -50844.86
             --------                                   --------

 TOTAL STORAGE CHANGE =        -844002.20         STORAGE CHANGE =         -50571.74
       --------------                             --------------
         LAND SURFACE =             16.57           LAND SURFACE =             -3.65
            SOIL ZONE =        1826665.32              SOIL ZONE =         -31385.26
     UNSATURATED ZONE =       -3079297.27       UNSATURATED ZONE =         -12792.63
       SATURATED ZONE =         408606.63         SATURATED ZONE =          -6390.27

 OVERALL BUDGET ERROR =          67864.18           BUDGET ERROR =           -273.12


  PERCENT DISCREPANCY =              0.44    PERCENT DISCREPANCY =             -0.54



1
 SUMMARY VOLUMETRIC BUDGET FOR GSFLOW 
 DATE: 06 30 1991              CUMULATIVE TIME STEP:      30
 MODFLOW STRESS PERIOD     10     CURRENT TIME STEP:     273     ITERATIONS:       7

 -----------------------------------------------------------------------------------

   CUMULATIVE VOLUMES               L**3   RATES FOR THIS TIME STEP           L**3/T
   ------------------                      ------------------------

                                     IN                                         IN
[...]
     GW BOUNDARY FLOW =          50950.39       GW BOUNDARY FLOW =             24.10

   INFLOWS - OUTFLOWS =       -1.1444D+07     INFLOWS - OUTFLOWS =         -80468.77
             --------                                   --------

 TOTAL STORAGE CHANGE =       -1.1868D+07         STORAGE CHANGE =         -80332.36
       --------------                             --------------
         LAND SURFACE =         179293.22           LAND SURFACE =         -11102.33
            SOIL ZONE =        1380710.96              SOIL ZONE =         -50396.09
     UNSATURATED ZONE =           5880.02       UNSATURATED ZONE =         -11784.75
       SATURATED ZONE =       -1.3434D+07         SATURATED ZONE =          -7049.73

 OVERALL BUDGET ERROR =         424234.19           BUDGET ERROR =           -136.41


  PERCENT DISCREPANCY =              0.29    PERCENT DISCREPANCY =             -0.17



1
 SUMMARY VOLUMETRIC BUDGET FOR GSFLOW 
 DATE: 09 03 1995              CUMULATIVE TIME STEP:       3
 MODFLOW STRESS PERIOD     61     CURRENT TIME STEP:    1799     ITERATIONS:       7

 -----------------------------------------------------------------------------------

   CUMULATIVE VOLUMES               L**3   RATES FOR THIS TIME STEP           L**3/T
   ------------------                      ------------------------

                                     IN                                         IN
                                     --                                         --
        PRECIPITATION =        1.3351D+08          PRECIPITATION =                  
           STREAMFLOW =                               STREAMFLOW =                  
     GW BOUNDARY FLOW =           5626.12       GW BOUNDARY FLOW =              3.53


                                    OUT                                        OUT
                                    ---                                        ---
   EVAPOTRANSPIRATION =        7.3384D+07     EVAPOTRANSPIRATION =          63189.74
           STREAMFLOW =        7.2051D+07             STREAMFLOW =           6622.60
     GW BOUNDARY FLOW =          51118.66       GW BOUNDARY FLOW =             24.00

   INFLOWS - OUTFLOWS =       -1.1973D+07     INFLOWS - OUTFLOWS =         -69832.81
             --------                                   --------

 TOTAL STORAGE CHANGE =       -1.2396D+07         STORAGE CHANGE =         -69801.88
       --------------                             --------------
         LAND SURFACE =         114525.52           LAND SURFACE =          -7766.54
            SOIL ZONE =        1049011.22              SOIL ZONE =         -43569.68
     UNSATURATED ZONE =         -71301.46       UNSATURATED ZONE =         -10575.41
       SATURATED ZONE =       -1.3489D+07         SATURATED ZONE =          -7890.79

 OVERALL BUDGET ERROR =         423599.12           BUDGET ERROR =            -30.94


  PERCENT DISCREPANCY =              0.29    PERCENT DISCREPANCY =             -0.04



1
 SUMMARY VOLUMETRIC BUDGET FOR GSFLOW 
 DATE: 09 10 1995              CUMULATIVE TIME STEP:      10
 MODFLOW STRESS PERIOD     61     CURRENT TIME STEP:    1806     ITERATIONS:       7

 -----------------------------------------------------------------------------------

   CUMULATIVE VOLUMES               L**3   RATES FOR THIS TIME STEP           L**3/T
   ------------------                      ------------------------

                                     IN                                         IN
                                     --                                         --
        PRECIPITATION =        1.3351D+08          PRECIPITATION =                  
           STREAMFLOW =                               STREAMFLOW =                  
     GW BOUNDARY FLOW =           5651.19       GW BOUNDARY FLOW =              3.62


                                    OUT                                        OUT
                                    ---                                        ---
   EVAPOTRANSPIRATION =        7.3738D+07     EVAPOTRANSPIRATION =          47290.24
           STREAMFLOW =        7.2099D+07             STREAMFLOW =           6666.86
     GW BOUNDARY FLOW =          51286.80       GW BOUNDARY FLOW =             24.01

   INFLOWS - OUTFLOWS =       -1.2374D+07     INFLOWS - OUTFLOWS =         -53977.49
             --------                                   --------

 TOTAL STORAGE CHANGE =       -1.2797D+07         STORAGE CHANGE =         -53954.17
       --------------                             --------------
         LAND SURFACE =          75925.35           LAND SURFACE =          -4673.87
            SOIL ZONE =         809001.56              SOIL ZONE =         -31430.70
     UNSATURATED ZONE =        -143235.01       UNSATURATED ZONE =         -10345.33
       SATURATED ZONE =       -1.3540D+07         SATURATED ZONE =          -7504.81

 OVERALL BUDGET ERROR =         423455.17           BUDGET ERROR =            -23.33


  PERCENT DISCREPANCY =              0.29    PERCENT DISCREPANCY =             -0.04



1
 SUMMARY VOLUMETRIC BUDGET FOR GSFLOW 
 DATE: 09 17 1995              CUMULATIVE TIME STEP:      17
 MODFLOW STRESS PERIOD     61     CURRENT TIME STEP:    1813     ITERATIONS:       7

 -----------------------------------------------------------------------------------

   CUMULATIVE VOLUMES               L**3   RATES FOR THIS TIME STEP           L**3/T
   ------------------                      ------------------------

                                     IN                                         IN
                                     --                                         --
        PRECIPITATION =        1.3351D+08          PRECIPITATION =                  
           STREAMFLOW =                               STREAMFLOW =                  
     GW BOUNDARY FLOW =           5676.89       GW BOUNDARY FLOW =              3.71


                                    OUT                                        OUT
                                    ---                                        ---
   EVAPOTRANSPIRATION =        7.4119D+07     EVAPOTRANSPIRATION =          43131.24
           STREAMFLOW =        7.2138D+07             STREAMFLOW =           5847.66
     GW BOUNDARY FLOW =          51454.14       GW BOUNDARY FLOW =             23.93

   INFLOWS - OUTFLOWS =       -1.2795D+07     INFLOWS - OUTFLOWS =         -48999.12
             --------                                   --------

 TOTAL STORAGE CHANGE =       -1.3218D+07         STORAGE CHANGE =         -48976.46
       --------------                             --------------
         LAND SURFACE =          44186.54           LAND SURFACE =          -3043.17
            SOIL ZONE =         564792.45              SOIL ZONE =         -26440.52
     UNSATURATED ZONE =        -219706.70       UNSATURATED ZONE =         -10695.42
       SATURATED ZONE =       -1.3608D+07         SATURATED ZONE =          -8797.88

 OVERALL BUDGET ERROR =         423247.38           BUDGET ERROR =            -22.66


  PERCENT DISCREPANCY =              0.29    PERCENT DISCREPANCY =             -0.05



1
 SUMMARY VOLUMETRIC BUDGET FOR GSFLOW 
 DATE: 09 24 1995              CUMULATIVE TIME STEP:      24
 MODFLOW STRESS PERIOD     61     CURRENT TIME STEP:    1820     ITERATIONS:       6

 -----------------------------------------------------------------------------------

   CUMULATIVE VOLUMES               L**3   RATES FOR THIS TIME STEP           L**3/T
   ------------------                      ------------------------

                                     IN                                         IN
                                     --                                         --
        PRECIPITATION =        1.3351D+08          PRECIPITATION =                  
           STREAMFLOW =                               STREAMFLOW =                  
     GW BOUNDARY FLOW =           5703.20       GW BOUNDARY FLOW =              3.79


                                    OUT                                        OUT
                                    ---                                        ---
   EVAPOTRANSPIRATION =        7.4384D+07     EVAPOTRANSPIRATION =          27426.06
           STREAMFLOW =        7.2180D+07             STREAMFLOW =           6490.42
     GW BOUNDARY FLOW =          51621.61       GW BOUNDARY FLOW =             23.97

   INFLOWS - OUTFLOWS =       -1.3102D+07     INFLOWS - OUTFLOWS =         -33936.65
             --------                                   --------

 TOTAL STORAGE CHANGE =       -1.3525D+07         STORAGE CHANGE =         -33924.62
       --------------                             --------------
         LAND SURFACE =          28055.76           LAND SURFACE =          -1559.79
            SOIL ZONE =         409274.94              SOIL ZONE =         -15434.74
     UNSATURATED ZONE =        -291684.01       UNSATURATED ZONE =          -9212.01
       SATURATED ZONE =       -1.3671D+07         SATURATED ZONE =          -7718.61

 OVERALL BUDGET ERROR =         423101.26           BUDGET ERROR =            -12.03


  PERCENT DISCREPANCY =              0.29    PERCENT DISCREPANCY =             -0.04



1
 SUMMARY VOLUMETRIC BUDGET FOR GSFLOW 
 DATE: 10 01 1995              CUMULATIVE TIME STEP:       1
 MODFLOW STRESS PERIOD     62     CURRENT TIME STEP:    1827     ITERATIONS:       6

 -----------------------------------------------------------------------------------

   CUMULATIVE VOLUMES               L**3   RATES FOR THIS TIME STEP           L**3/T
   ------------------                      ------------------------

                                     IN                                         IN
                                     --                                         --
        PRECIPITATION =        1.3351D+08          PRECIPITATION =                  
           STREAMFLOW =                               STREAMFLOW =                  
     GW BOUNDARY FLOW =           5730.08       GW BOUNDARY FLOW =              3.87


                                    OUT                                        OUT
                                    ---                                        ---
   EVAPOTRANSPIRATION =        7.4500D+07     EVAPOTRANSPIRATION =          16756.44
           STREAMFLOW =        7.2232D+07             STREAMFLOW =           7479.24
     GW BOUNDARY FLOW =          51789.98       GW BOUNDARY FLOW =             24.06

   INFLOWS - OUTFLOWS =       -1.3270D+07     INFLOWS - OUTFLOWS =         -24255.87
             --------                                   --------

 TOTAL STORAGE CHANGE =       -1.3693D+07         STORAGE CHANGE =         -24250.62
       --------------                             --------------
         LAND SURFACE =          22241.70           LAND SURFACE =           -699.89
            SOIL ZONE =         346641.81              SOIL ZONE =          -9153.70
     UNSATURATED ZONE =        -349429.54       UNSATURATED ZONE =          -8094.85
       SATURATED ZONE =       -1.3713D+07         SATURATED ZONE =          -6302.71

 OVERALL BUDGET ERROR =         423056.11           BUDGET ERROR =             -5.25


  PERCENT DISCREPANCY =              0.29    PERCENT DISCREPANCY =             -0.02



1
 SUMMARY VOLUMETRIC BUDGET FOR GSFLOW 
 DATE: 10 08 1995              CUMULATIVE TIME STEP:       8
 MODFLOW STRESS PERIOD     62     CURRENT TIME STEP:    1834     ITERATIONS:       6

 -----------------------------------------------------------------------------------

   CUMULATIVE VOLUMES               L**3   RATES FOR THIS TIME STEP           L**3/T
   ------------------                      ------------------------

                                     IN                                         IN
                                     --                                         --
        PRECIPITATION =        1.3351D+08          PRECIPITATION =                  
           STREAMFLOW =                               STREAMFLOW =                  
     GW BOUNDARY FLOW =           5757.50       GW BOUNDARY FLOW =              3.95


                                    OUT                                        OUT
                                    ---                                        ---
   EVAPOTRANSPIRATION =        7.4623D+07     EVAPOTRANSPIRATION =          15486.79
           STREAMFLOW =        7.2283D+07             STREAMFLOW =           7391.32
     GW BOUNDARY FLOW =          51958.30       GW BOUNDARY FLOW =             24.06

   INFLOWS - OUTFLOWS =       -1.3444D+07     INFLOWS - OUTFLOWS =         -22898.22
             --------                                   --------

 TOTAL STORAGE CHANGE =       -1.3867D+07         STORAGE CHANGE =         -22892.27
       --------------                             --------------
         LAND SURFACE =          18179.46           LAND SURFACE =           -628.45
            SOIL ZONE =         279461.12              SOIL ZONE =          -8135.84
     UNSATURATED ZONE =        -404216.30       UNSATURATED ZONE =          -7466.34
       SATURATED ZONE =       -1.3761D+07         SATURATED ZONE =          -6662.18

 OVERALL BUDGET ERROR =         422999.46           BUDGET ERROR =             -5.95


  PERCENT DISCREPANCY =              0.29    PERCENT DISCREPANCY =             -0.03



1
 SUMMARY VOLUMETRIC BUDGET FOR GSFLOW 
 DATE: 10 15 1995              CUMULATIVE TIME STEP:      15
 MODFLOW STRESS PERIOD     62     CURRENT TIME STEP:    1841     ITERATIONS:       5

 -----------------------------------------------------------------------------------

   CUMULATIVE VOLUMES               L**3   RATES FOR THIS TIME STEP           L**3/T
   ------------------                      ------------------------

                                     IN                                         IN
                                     --                                         --
        PRECIPITATION =        1.3351D+08          PRECIPITATION =                  
           STREAMFLOW =                               STREAMFLOW =                  
     GW BOUNDARY FLOW =           5785.41       GW BOUNDARY FLOW =              4.02


                                    OUT                                        OUT
                                    ---                                        ---
   EVAPOTRANSPIRATION =        7.4739D+07     EVAPOTRANSPIRATION =          18076.70
           STREAMFLOW =        7.2333D+07             STREAMFLOW =           6978.84
     GW BOUNDARY FLOW =          52126.59       GW BOUNDARY FLOW =             24.03

   INFLOWS - OUTFLOWS =       -1.3610D+07     INFLOWS - OUTFLOWS =         -25075.56
             --------                                   --------

 TOTAL STORAGE CHANGE =       -1.4033D+07         STORAGE CHANGE =         -25067.27
       --------------                             --------------
         LAND SURFACE =          14037.99           LAND SURFACE =           -696.58
            SOIL ZONE =         218923.68              SOIL ZONE =          -9198.63
     UNSATURATED ZONE =        -454086.57       UNSATURATED ZONE =          -6973.71
       SATURATED ZONE =       -1.3812D+07         SATURATED ZONE =          -8198.88

 OVERALL BUDGET ERROR =         422935.20           BUDGET ERROR =             -8.29


  PERCENT DISCREPANCY =              0.29    PERCENT DISCREPANCY =             -0.03



1
 SUMMARY VOLUMETRIC BUDGET FOR GSFLOW 
 DATE: 10 22 1995              CUMULATIVE TIME STEP:      22
 MODFLOW STRESS PERIOD     62     CURRENT TIME STEP:    1848     ITERATIONS:       7

 -----------------------------------------------------------------------------------

   CUMULATIVE VOLUMES               L**3   RATES FOR THIS TIME STEP           L**3/T
   ------------------                      ------------------------

                                     IN                                         IN
                                     --                                         --
        PRECIPITATION =        1.3351D+08          PRECIPITATION =                  
           STREAMFLOW =                               STREAMFLOW =                  
     GW BOUNDARY FLOW =           5813.78       GW BOUNDARY FLOW =              4.08


                                    OUT                                        OUT
                                    ---                                        ---
   EVAPOTRANSPIRATION =        7.4842D+07     EVAPOTRANSPIRATION =           4702.63
           STREAMFLOW =        7.2384D+07             STREAMFLOW =           8144.48
     GW BOUNDARY FLOW =          52294.91       GW BOUNDARY FLOW =             24.14

   INFLOWS - OUTFLOWS =       -1.3764D+07     INFLOWS - OUTFLOWS =         -12867.16
             --------                                   --------

 TOTAL STORAGE CHANGE =       -1.4187D+07         STORAGE CHANGE =         -12867.96
       --------------                             --------------
         LAND SURFACE =          10452.80           LAND SURFACE =             -6.45
            SOIL ZONE =         168057.04              SOIL ZONE =          -2048.72
     UNSATURATED ZONE =        -500716.54       UNSATURATED ZONE =          -6187.21
       SATURATED ZONE =       -1.3865D+07         SATURATED ZONE =          -4626.12

 OVERALL BUDGET ERROR =         422882.84           BUDGET ERROR =              0.80


  PERCENT DISCREPANCY =              0.29    PERCENT DISCREPANCY =              0.01



1
 SUMMARY VOLUMETRIC BUDGET FOR GSFLOW 
 DATE: 10 29 1995              CUMULATIVE TIME STEP:      29
 MODFLOW STRESS PERIOD     62     CURRENT TIME STEP:    1855     ITERATIONS:      14

 -----------------------------------------------------------------------------------

   CUMULATIVE VOLUMES               L**3   RATES FOR THIS TIME STEP           L**3/T
   ------------------                      ------------------------

                                     IN                                         IN
                                     --                                         --
        PRECIPITATION =        1.3351D+08          PRECIPITATION =                  
           STREAMFLOW =                               STREAMFLOW =                  
     GW BOUNDARY FLOW =           5842.57       GW BOUNDARY FLOW =              4.14


                                    OUT                                        OUT
                                    ---                                        ---
   EVAPOTRANSPIRATION =        7.4908D+07     EVAPOTRANSPIRATION =          11330.47
           STREAMFLOW =        7.2438D+07             STREAMFLOW =           7488.17
     GW BOUNDARY FLOW =          52463.66       GW BOUNDARY FLOW =             24.09

   INFLOWS - OUTFLOWS =       -1.3884D+07     INFLOWS - OUTFLOWS =         -18838.59
             --------                                   --------

 TOTAL STORAGE CHANGE =       -1.4307D+07         STORAGE CHANGE =         -18832.25
       --------------                             --------------
         LAND SURFACE =           9254.99           LAND SURFACE =           -359.13
            SOIL ZONE =         138084.28              SOIL ZONE =          -5038.64
     UNSATURATED ZONE =        -544891.52       UNSATURATED ZONE =          -6231.10
       SATURATED ZONE =       -1.3910D+07         SATURATED ZONE =          -7203.92

 OVERALL BUDGET ERROR =         422856.81           BUDGET ERROR =             -6.34


  PERCENT DISCREPANCY =              0.29    PERCENT DISCREPANCY =             -0.03



 Number of time steps:   1857;  Number of non-convergence:   0
 MF iterations:         11582;  SZ iterations:           11546
 Average MF iterations:  6.24;  Average SZ iterations:    6.22
 Maximum MF iterations:    72;  Maximum SZ iterations:      50

mxsziter reached: 2

