1
 SUMMARY VOLUMETRIC BUDGET FOR GSFLOW 
 DATE: 10 07 1990              CUMULATIVE TIME STEP:       7
 MODFLOW STRESS PERIOD      2     CURRENT TIME STEP:       7     ITERATIONS:       7

 -----------------------------------------------------------------------------------

   CUMULATIVE VOLUMES               L**3   RATES FOR THIS TIME STEP           L**3/T
   ------------------                      ------------------------

                                     IN                                         IN
                                     --                                         --
        PRECIPITATION =                            PRECIPITATION =                  
           STREAMFLOW =                               STREAMFLOW =                  
     GW BOUNDARY FLOW =                         GW BOUNDARY FLOW =                  


                                    OUT                                        OUT
                                    ---                                        ---
   EVAPOTRANSPIRATION =         385031.63     EVAPOTRANSPIRATION =          11801.34
           STREAMFLOW =          45661.61             STREAMFLOW =           8128.74
     GW BOUNDARY FLOW =            252.78       GW BOUNDARY FLOW =             36.30

   INFLOWS - OUTFLOWS =        -430946.01     INFLOWS - OUTFLOWS =         -19966.38
             --------                                   --------

 TOTAL STORAGE CHANGE =        -429355.10         STORAGE CHANGE =         -19938.35
       --------------                             --------------
         LAND SURFACE =                             LAND SURFACE =                  
            SOIL ZONE =         -33384.03              SOIL ZONE =           -943.80
     UNSATURATED ZONE =        -502794.45       UNSATURATED ZONE =         -33592.86
       SATURATED ZONE =         106823.38         SATURATED ZONE =          14598.31

 OVERALL BUDGET ERROR =          -1590.91           BUDGET ERROR =            -28.04


  PERCENT DISCREPANCY =             -0.37    PERCENT DISCREPANCY =             -0.14



1
 SUMMARY VOLUMETRIC BUDGET FOR GSFLOW 
 DATE: 10 14 1990              CUMULATIVE TIME STEP:      14
 MODFLOW STRESS PERIOD      2     CURRENT TIME STEP:      14     ITERATIONS:       6

 -----------------------------------------------------------------------------------

   CUMULATIVE VOLUMES               L**3   RATES FOR THIS TIME STEP           L**3/T
   ------------------                      ------------------------

                                     IN                                         IN
                                     --                                         --
        PRECIPITATION =                            PRECIPITATION =                  
           STREAMFLOW =                               STREAMFLOW =                  
     GW BOUNDARY FLOW =                         GW BOUNDARY FLOW =                  


                                    OUT                                        OUT
                                    ---                                        ---
   EVAPOTRANSPIRATION =         665235.67     EVAPOTRANSPIRATION =          42298.13
           STREAMFLOW =         100376.39             STREAMFLOW =           7413.80
     GW BOUNDARY FLOW =            506.61       GW BOUNDARY FLOW =             36.24

   INFLOWS - OUTFLOWS =        -766118.67     INFLOWS - OUTFLOWS =         -49748.17
             --------                                   --------

 TOTAL STORAGE CHANGE =        -764154.83         STORAGE CHANGE =         -49710.99
       --------------                             --------------
         LAND SURFACE =                             LAND SURFACE =                  
            SOIL ZONE =         -58194.84              SOIL ZONE =          -4382.18
     UNSATURATED ZONE =        -877795.92       UNSATURATED ZONE =         -52080.87
       SATURATED ZONE =         171835.92         SATURATED ZONE =           6752.05

 OVERALL BUDGET ERROR =          -1963.85           BUDGET ERROR =            -37.18


  PERCENT DISCREPANCY =             -0.26    PERCENT DISCREPANCY =             -0.07



1
 SUMMARY VOLUMETRIC BUDGET FOR GSFLOW 
 DATE: 10 21 1990              CUMULATIVE TIME STEP:      21
 MODFLOW STRESS PERIOD      2     CURRENT TIME STEP:      21     ITERATIONS:       6

 -----------------------------------------------------------------------------------

   CUMULATIVE VOLUMES               L**3   RATES FOR THIS TIME STEP           L**3/T
   ------------------                      ------------------------

                                     IN                                         IN
                                     --                                         --
        PRECIPITATION =         188432.87          PRECIPITATION =                  
           STREAMFLOW =                               STREAMFLOW =                  
     GW BOUNDARY FLOW =                         GW BOUNDARY FLOW =                  


                                    OUT                                        OUT
                                    ---                                        ---
   EVAPOTRANSPIRATION =         815639.35     EVAPOTRANSPIRATION =          41834.63
           STREAMFLOW =         163138.74             STREAMFLOW =          10141.42
     GW BOUNDARY FLOW =            760.80       GW BOUNDARY FLOW =             36.37

   INFLOWS - OUTFLOWS =        -791106.02     INFLOWS - OUTFLOWS =         -52012.42
             --------                                   --------

 TOTAL STORAGE CHANGE =        -790349.22         STORAGE CHANGE =         -52020.63
       --------------                             --------------
         LAND SURFACE =          18885.57           LAND SURFACE =         -43558.49
            SOIL ZONE =          47305.10              SOIL ZONE =           2013.87
     UNSATURATED ZONE =       -1091630.01       UNSATURATED ZONE =         -21396.92
       SATURATED ZONE =         235090.12         SATURATED ZONE =          10920.90

 OVERALL BUDGET ERROR =           -756.80           BUDGET ERROR =              8.20


  PERCENT DISCREPANCY =             -0.08    PERCENT DISCREPANCY =              0.02



1
 SUMMARY VOLUMETRIC BUDGET FOR GSFLOW 
 DATE: 10 28 1990              CUMULATIVE TIME STEP:      28
 MODFLOW STRESS PERIOD      2     CURRENT TIME STEP:      28     ITERATIONS:       6

 -----------------------------------------------------------------------------------

   CUMULATIVE VOLUMES               L**3   RATES FOR THIS TIME STEP           L**3/T
   ------------------                      ------------------------

                                     IN                                         IN
                                     --                                         --
        PRECIPITATION =         188432.87          PRECIPITATION =                  
           STREAMFLOW =                               STREAMFLOW =                  
     GW BOUNDARY FLOW =                         GW BOUNDARY FLOW =                  


                                    OUT                                        OUT
                                    ---                                        ---
   EVAPOTRANSPIRATION =         944459.90     EVAPOTRANSPIRATION =          11826.69
           STREAMFLOW =         224511.87             STREAMFLOW =           8913.88
     GW BOUNDARY FLOW =           1013.98       GW BOUNDARY FLOW =             36.12

   INFLOWS - OUTFLOWS =        -981552.88     INFLOWS - OUTFLOWS =         -20776.70
             --------                                   --------

 TOTAL STORAGE CHANGE =        -980732.62         STORAGE CHANGE =         -20766.57
       --------------                             --------------
         LAND SURFACE =                             LAND SURFACE =                  
            SOIL ZONE =          18260.77              SOIL ZONE =          -3430.25
     UNSATURATED ZONE =       -1275180.06       UNSATURATED ZONE =         -23225.97
       SATURATED ZONE =         276186.66         SATURATED ZONE =           5889.65

 OVERALL BUDGET ERROR =           -820.26           BUDGET ERROR =            -10.13


  PERCENT DISCREPANCY =             -0.07    PERCENT DISCREPANCY =             -0.05



1
 SUMMARY VOLUMETRIC BUDGET FOR GSFLOW 
 DATE: 11 04 1990              CUMULATIVE TIME STEP:       4
 MODFLOW STRESS PERIOD      3     CURRENT TIME STEP:      35     ITERATIONS:       6

 -----------------------------------------------------------------------------------

   CUMULATIVE VOLUMES               L**3   RATES FOR THIS TIME STEP           L**3/T
   ------------------                      ------------------------

                                     IN                                         IN
                                     --                                         --
        PRECIPITATION =         703113.06          PRECIPITATION =                  
           STREAMFLOW =                               STREAMFLOW =                  
     GW BOUNDARY FLOW =                         GW BOUNDARY FLOW =                  


                                    OUT                                        OUT
                                    ---                                        ---
   EVAPOTRANSPIRATION =        1005153.94     EVAPOTRANSPIRATION =          26357.54
           STREAMFLOW =         295044.81             STREAMFLOW =          10632.28
     GW BOUNDARY FLOW =           1267.03       GW BOUNDARY FLOW =             36.14

   INFLOWS - OUTFLOWS =        -598352.72     INFLOWS - OUTFLOWS =         -37025.96
             --------                                   --------

 TOTAL STORAGE CHANGE =        -602713.52         STORAGE CHANGE =         -38317.39
       --------------                             --------------
         LAND SURFACE =         132159.65           LAND SURFACE =        -160480.33
            SOIL ZONE =         349909.91              SOIL ZONE =         132879.93
     UNSATURATED ZONE =       -1420693.01       UNSATURATED ZONE =         -20070.11
       SATURATED ZONE =         335909.92         SATURATED ZONE =           9353.12

 OVERALL BUDGET ERROR =           4360.80           BUDGET ERROR =           1291.43

  ***WARNING, FLUX RATES OFF > 3%

  PERCENT DISCREPANCY =              0.33    PERCENT DISCREPANCY =              3.43



1
 SUMMARY VOLUMETRIC BUDGET FOR GSFLOW 
 DATE: 11 11 1990              CUMULATIVE TIME STEP:      11
 MODFLOW STRESS PERIOD      3     CURRENT TIME STEP:      42     ITERATIONS:       6

 -----------------------------------------------------------------------------------

   CUMULATIVE VOLUMES               L**3   RATES FOR THIS TIME STEP           L**3/T
   ------------------                      ------------------------

                                     IN                                         IN
                                     --                                         --
        PRECIPITATION =         703113.06          PRECIPITATION =                  
           STREAMFLOW =                               STREAMFLOW =                  
     GW BOUNDARY FLOW =                         GW BOUNDARY FLOW =                  


                                    OUT                                        OUT
                                    ---                                        ---
   EVAPOTRANSPIRATION =        1082561.66     EVAPOTRANSPIRATION =          12156.63
           STREAMFLOW =         366075.64             STREAMFLOW =           9638.74
     GW BOUNDARY FLOW =           1519.13       GW BOUNDARY FLOW =             35.92

   INFLOWS - OUTFLOWS =        -747043.37     INFLOWS - OUTFLOWS =         -21831.29
             --------                                   --------

 TOTAL STORAGE CHANGE =        -751570.51         STORAGE CHANGE =         -21827.73
       --------------                             --------------
         LAND SURFACE =            595.09           LAND SURFACE =          -1416.54
            SOIL ZONE =         422044.01              SOIL ZONE =          -5448.89
     UNSATURATED ZONE =       -1559863.80       UNSATURATED ZONE =         -19858.13
       SATURATED ZONE =         385654.16         SATURATED ZONE =           4895.83

 OVERALL BUDGET ERROR =           4527.14           BUDGET ERROR =             -3.56


  PERCENT DISCREPANCY =              0.31    PERCENT DISCREPANCY =             -0.02



1
 SUMMARY VOLUMETRIC BUDGET FOR GSFLOW 
 DATE: 11 18 1990              CUMULATIVE TIME STEP:      18
 MODFLOW STRESS PERIOD      3     CURRENT TIME STEP:      49     ITERATIONS:       6

 -----------------------------------------------------------------------------------

   CUMULATIVE VOLUMES               L**3   RATES FOR THIS TIME STEP           L**3/T
   ------------------                      ------------------------

                                     IN                                         IN
                                     --                                         --
        PRECIPITATION =         747883.35          PRECIPITATION =                  
           STREAMFLOW =                               STREAMFLOW =                  
     GW BOUNDARY FLOW =                         GW BOUNDARY FLOW =                  


                                    OUT                                        OUT
                                    ---                                        ---
   EVAPOTRANSPIRATION =        1155124.24     EVAPOTRANSPIRATION =           5077.02
           STREAMFLOW =         437740.51             STREAMFLOW =          10662.65
     GW BOUNDARY FLOW =           1770.44       GW BOUNDARY FLOW =             35.88

   INFLOWS - OUTFLOWS =        -846751.84     INFLOWS - OUTFLOWS =         -15775.56
             --------                                   --------

 TOTAL STORAGE CHANGE =        -851302.06         STORAGE CHANGE =         -15784.61
       --------------                             --------------
         LAND SURFACE =           7868.08           LAND SURFACE =          -3691.47
            SOIL ZONE =         404074.18              SOIL ZONE =           -743.65
     UNSATURATED ZONE =       -1693039.85       UNSATURATED ZONE =         -18611.22
       SATURATED ZONE =         429795.48         SATURATED ZONE =           7261.72

 OVERALL BUDGET ERROR =           4550.22           BUDGET ERROR =              9.06


  PERCENT DISCREPANCY =              0.28    PERCENT DISCREPANCY =              0.06



1
 SUMMARY VOLUMETRIC BUDGET FOR GSFLOW 
 DATE: 11 25 1990              CUMULATIVE TIME STEP:      25
 MODFLOW STRESS PERIOD      3     CURRENT TIME STEP:      56     ITERATIONS:       6

 -----------------------------------------------------------------------------------

   CUMULATIVE VOLUMES               L**3   RATES FOR THIS TIME STEP           L**3/T
   ------------------                      ------------------------

                                     IN                                         IN
                                     --                                         --
        PRECIPITATION =        1009043.38          PRECIPITATION =         186542.88
           STREAMFLOW =                               STREAMFLOW =                  
     GW BOUNDARY FLOW =                         GW BOUNDARY FLOW =                  


                                    OUT                                        OUT
                                    ---                                        ---
   EVAPOTRANSPIRATION =        1215718.78     EVAPOTRANSPIRATION =           3754.37
           STREAMFLOW =         513691.56             STREAMFLOW =          10868.34
     GW BOUNDARY FLOW =           2021.39       GW BOUNDARY FLOW =             35.79

   INFLOWS - OUTFLOWS =        -722388.36     INFLOWS - OUTFLOWS =         171884.37
             --------                                   --------

 TOTAL STORAGE CHANGE =        -729156.71         STORAGE CHANGE =         169959.64
       --------------                             --------------
         LAND SURFACE =          86180.68           LAND SURFACE =          69567.13
            SOIL ZONE =         526114.67              SOIL ZONE =         112016.17
     UNSATURATED ZONE =       -1820643.87       UNSATURATED ZONE =         -17904.14
       SATURATED ZONE =         479191.75         SATURATED ZONE =           6280.48

 OVERALL BUDGET ERROR =           6768.35           BUDGET ERROR =           1924.73


  PERCENT DISCREPANCY =              0.39    PERCENT DISCREPANCY =              1.04



1
 SUMMARY VOLUMETRIC BUDGET FOR GSFLOW 
 DATE: 12 02 1990              CUMULATIVE TIME STEP:       2
 MODFLOW STRESS PERIOD      4     CURRENT TIME STEP:      63     ITERATIONS:       6

 -----------------------------------------------------------------------------------

   CUMULATIVE VOLUMES               L**3   RATES FOR THIS TIME STEP           L**3/T
   ------------------                      ------------------------

                                     IN                                         IN
                                     --                                         --
        PRECIPITATION =        1449284.55          PRECIPITATION =                  
           STREAMFLOW =                               STREAMFLOW =                  
     GW BOUNDARY FLOW =                         GW BOUNDARY FLOW =                  


                                    OUT                                        OUT
                                    ---                                        ---
   EVAPOTRANSPIRATION =        1222235.06     EVAPOTRANSPIRATION =            235.96
           STREAMFLOW =         590857.50             STREAMFLOW =          11064.81
     GW BOUNDARY FLOW =           2271.88       GW BOUNDARY FLOW =             35.77

   INFLOWS - OUTFLOWS =        -366079.88     INFLOWS - OUTFLOWS =         -11336.54
             --------                                   --------

 TOTAL STORAGE CHANGE =        -373983.76         STORAGE CHANGE =         -11345.58
       --------------                             --------------
         LAND SURFACE =         486845.62           LAND SURFACE =           -339.04
            SOIL ZONE =         558396.25              SOIL ZONE =            150.76
     UNSATURATED ZONE =       -1943486.49       UNSATURATED ZONE =         -17255.00
       SATURATED ZONE =         524260.77         SATURATED ZONE =           6097.70

 OVERALL BUDGET ERROR =           7903.88           BUDGET ERROR =              9.04


  PERCENT DISCREPANCY =              0.43    PERCENT DISCREPANCY =              0.08



1
 SUMMARY VOLUMETRIC BUDGET FOR GSFLOW 
 DATE: 12 09 1990              CUMULATIVE TIME STEP:       9
 MODFLOW STRESS PERIOD      4     CURRENT TIME STEP:      70     ITERATIONS:       6

 -----------------------------------------------------------------------------------

   CUMULATIVE VOLUMES               L**3   RATES FOR THIS TIME STEP           L**3/T
   ------------------                      ------------------------

                                     IN                                         IN
                                     --                                         --
        PRECIPITATION =        1449284.55          PRECIPITATION =                  
           STREAMFLOW =                               STREAMFLOW =                  
     GW BOUNDARY FLOW =                         GW BOUNDARY FLOW =                  


                                    OUT                                        OUT
                                    ---                                        ---
   EVAPOTRANSPIRATION =        1298303.13     EVAPOTRANSPIRATION =          13893.19
           STREAMFLOW =         668525.52             STREAMFLOW =          10910.54
     GW BOUNDARY FLOW =           2521.84       GW BOUNDARY FLOW =             35.65

   INFLOWS - OUTFLOWS =        -520065.93     INFLOWS - OUTFLOWS =         -24839.38
             --------                                   --------

 TOTAL STORAGE CHANGE =        -532551.96         STORAGE CHANGE =         -24961.49
       --------------                             --------------
         LAND SURFACE =          67215.41           LAND SURFACE =         -45889.70
            SOIL ZONE =         900826.06              SOIL ZONE =          33513.32
     UNSATURATED ZONE =       -2061344.88       UNSATURATED ZONE =         -16498.31
       SATURATED ZONE =         560751.33         SATURATED ZONE =           3913.20

 OVERALL BUDGET ERROR =          12486.03           BUDGET ERROR =            122.11


  PERCENT DISCREPANCY =              0.63    PERCENT DISCREPANCY =              0.49



1
 SUMMARY VOLUMETRIC BUDGET FOR GSFLOW 
 DATE: 12 16 1990              CUMULATIVE TIME STEP:      16
 MODFLOW STRESS PERIOD      4     CURRENT TIME STEP:      77     ITERATIONS:       5

 -----------------------------------------------------------------------------------

   CUMULATIVE VOLUMES               L**3   RATES FOR THIS TIME STEP           L**3/T
   ------------------                      ------------------------

                                     IN                                         IN
                                     --                                         --
        PRECIPITATION =        1804962.84          PRECIPITATION =                  
           STREAMFLOW =                               STREAMFLOW =                  
     GW BOUNDARY FLOW =                         GW BOUNDARY FLOW =                  


                                    OUT                                        OUT
                                    ---                                        ---
   EVAPOTRANSPIRATION =        1326631.59     EVAPOTRANSPIRATION =                  
           STREAMFLOW =         748150.10             STREAMFLOW =          11506.84
     GW BOUNDARY FLOW =           2771.25       GW BOUNDARY FLOW =             35.61

   INFLOWS - OUTFLOWS =        -272590.11     INFLOWS - OUTFLOWS =         -11542.45
             --------                                   --------

 TOTAL STORAGE CHANGE =        -287423.59         STORAGE CHANGE =         -11553.57
       --------------                             --------------
         LAND SURFACE =         252566.26           LAND SURFACE =                  
            SOIL ZONE =        1043228.57              SOIL ZONE =            -18.93
     UNSATURATED ZONE =       -2174685.93       UNSATURATED ZONE =         -15929.81
       SATURATED ZONE =         591467.36         SATURATED ZONE =           4395.17

 OVERALL BUDGET ERROR =          14833.48           BUDGET ERROR =             11.12


  PERCENT DISCREPANCY =              0.71    PERCENT DISCREPANCY =              0.10



1
 SUMMARY VOLUMETRIC BUDGET FOR GSFLOW 
 DATE: 12 23 1990              CUMULATIVE TIME STEP:      23
 MODFLOW STRESS PERIOD      4     CURRENT TIME STEP:      84     ITERATIONS:       6

 -----------------------------------------------------------------------------------

   CUMULATIVE VOLUMES               L**3   RATES FOR THIS TIME STEP           L**3/T
   ------------------                      ------------------------

                                     IN                                         IN
                                     --                                         --
        PRECIPITATION =        2276236.55          PRECIPITATION =                  
           STREAMFLOW =                               STREAMFLOW =                  
     GW BOUNDARY FLOW =              0.08       GW BOUNDARY FLOW =              0.04


                                    OUT                                        OUT
                                    ---                                        ---
   EVAPOTRANSPIRATION =        1327693.25     EVAPOTRANSPIRATION =                  
           STREAMFLOW =         828886.87             STREAMFLOW =          11557.93
     GW BOUNDARY FLOW =           3020.28       GW BOUNDARY FLOW =             35.57

   INFLOWS - OUTFLOWS =         116636.23     INFLOWS - OUTFLOWS =         -11593.47
             --------                                   --------

 TOTAL STORAGE CHANGE =         101734.34         STORAGE CHANGE =         -11602.92
       --------------                             --------------
         LAND SURFACE =         722784.34           LAND SURFACE =                  
            SOIL ZONE =        1043422.31              SOIL ZONE =             55.61
     UNSATURATED ZONE =       -2283883.67       UNSATURATED ZONE =         -15354.99
       SATURATED ZONE =         619411.17         SATURATED ZONE =           3696.46

 OVERALL BUDGET ERROR =          14901.89           BUDGET ERROR =              9.45


  PERCENT DISCREPANCY =              0.66    PERCENT DISCREPANCY =              0.08



1
 SUMMARY VOLUMETRIC BUDGET FOR GSFLOW 
 DATE: 12 30 1990              CUMULATIVE TIME STEP:      30
 MODFLOW STRESS PERIOD      4     CURRENT TIME STEP:      91     ITERATIONS:       5

 -----------------------------------------------------------------------------------

   CUMULATIVE VOLUMES               L**3   RATES FOR THIS TIME STEP           L**3/T
   ------------------                      ------------------------

                                     IN                                         IN
                                     --                                         --
        PRECIPITATION =        2276236.55          PRECIPITATION =                  
           STREAMFLOW =                               STREAMFLOW =                  
     GW BOUNDARY FLOW =              0.77       GW BOUNDARY FLOW =              0.14


                                    OUT                                        OUT
                                    ---                                        ---
   EVAPOTRANSPIRATION =        1328263.21     EVAPOTRANSPIRATION =                  
           STREAMFLOW =         910052.10             STREAMFLOW =          11625.39
     GW BOUNDARY FLOW =           3269.39       GW BOUNDARY FLOW =             35.60

   INFLOWS - OUTFLOWS =          34652.62     INFLOWS - OUTFLOWS =         -11660.85
             --------                                   --------

 TOTAL STORAGE CHANGE =          19693.28         STORAGE CHANGE =         -11668.41
       --------------                             --------------
         LAND SURFACE =         722216.94           LAND SURFACE =                  
            SOIL ZONE =        1044001.60              SOIL ZONE =            100.86
     UNSATURATED ZONE =       -2389168.41       UNSATURATED ZONE =         -14806.02
       SATURATED ZONE =         642642.92         SATURATED ZONE =           3036.74

 OVERALL BUDGET ERROR =          14959.34           BUDGET ERROR =              7.56


  PERCENT DISCREPANCY =              0.66    PERCENT DISCREPANCY =              0.06



1
 SUMMARY VOLUMETRIC BUDGET FOR GSFLOW 
 DATE: 01 06 1991              CUMULATIVE TIME STEP:       6
 MODFLOW STRESS PERIOD      5     CURRENT TIME STEP:      98     ITERATIONS:       5

 -----------------------------------------------------------------------------------

   CUMULATIVE VOLUMES               L**3   RATES FOR THIS TIME STEP           L**3/T
   ------------------                      ------------------------

                                     IN                                         IN
                                     --                                         --
        PRECIPITATION =        2276236.55          PRECIPITATION =                  
           STREAMFLOW =                               STREAMFLOW =                  
     GW BOUNDARY FLOW =              2.09       GW BOUNDARY FLOW =              0.22


                                    OUT                                        OUT
                                    ---                                        ---
   EVAPOTRANSPIRATION =        1355338.75     EVAPOTRANSPIRATION =           3189.43
           STREAMFLOW =         991884.32             STREAMFLOW =          11731.61
     GW BOUNDARY FLOW =           3519.27       GW BOUNDARY FLOW =             35.75

   INFLOWS - OUTFLOWS =         -74503.70     INFLOWS - OUTFLOWS =         -14956.57
             --------                                   --------

 TOTAL STORAGE CHANGE =         -92100.29         STORAGE CHANGE =         -15094.46
       --------------                             --------------
         LAND SURFACE =         592099.77           LAND SURFACE =          -8106.31
            SOIL ZONE =        1145220.18              SOIL ZONE =           4886.72
     UNSATURATED ZONE =       -2490515.44       UNSATURATED ZONE =         -14245.77
       SATURATED ZONE =         661094.91         SATURATED ZONE =           2370.89

 OVERALL BUDGET ERROR =          17596.60           BUDGET ERROR =            137.89


  PERCENT DISCREPANCY =              0.75    PERCENT DISCREPANCY =              0.92



1
 SUMMARY VOLUMETRIC BUDGET FOR GSFLOW 
 DATE: 01 13 1991              CUMULATIVE TIME STEP:      13
 MODFLOW STRESS PERIOD      5     CURRENT TIME STEP:     105     ITERATIONS:       6

 -----------------------------------------------------------------------------------

   CUMULATIVE VOLUMES               L**3   RATES FOR THIS TIME STEP           L**3/T
   ------------------                      ------------------------

                                     IN                                         IN
                                     --                                         --
        PRECIPITATION =        2596386.94          PRECIPITATION =          10327.43
           STREAMFLOW =                               STREAMFLOW =                  
     GW BOUNDARY FLOW =              4.01       GW BOUNDARY FLOW =              0.31


                                    OUT                                        OUT
                                    ---                                        ---
   EVAPOTRANSPIRATION =        1422269.78     EVAPOTRANSPIRATION =          18640.51
           STREAMFLOW =        1074140.81             STREAMFLOW =          11728.22
     GW BOUNDARY FLOW =           3769.50       GW BOUNDARY FLOW =             35.73

   INFLOWS - OUTFLOWS =          96210.87     INFLOWS - OUTFLOWS =         -20076.72
             --------                                   --------

 TOTAL STORAGE CHANGE =          73474.83         STORAGE CHANGE =         -21345.82
       --------------                             --------------
         LAND SURFACE =         529885.07           LAND SURFACE =        -135264.71
            SOIL ZONE =        1457483.56              SOIL ZONE =         126487.52
     UNSATURATED ZONE =       -2587800.79       UNSATURATED ZONE =         -13692.11
       SATURATED ZONE =         673906.66         SATURATED ZONE =           1123.47

 OVERALL BUDGET ERROR =          22736.04           BUDGET ERROR =           1269.10

  ***WARNING, FLUX RATES OFF > 3%

  PERCENT DISCREPANCY =              0.88    PERCENT DISCREPANCY =              4.09



1
 SUMMARY VOLUMETRIC BUDGET FOR GSFLOW 
 DATE: 01 20 1991              CUMULATIVE TIME STEP:      20
 MODFLOW STRESS PERIOD      5     CURRENT TIME STEP:     112     ITERATIONS:       5

 -----------------------------------------------------------------------------------

   CUMULATIVE VOLUMES               L**3   RATES FOR THIS TIME STEP           L**3/T
   ------------------                      ------------------------

                                     IN                                         IN
                                     --                                         --
        PRECIPITATION =        2596386.94          PRECIPITATION =                  
           STREAMFLOW =                               STREAMFLOW =                  
     GW BOUNDARY FLOW =              6.54       GW BOUNDARY FLOW =              0.40


                                    OUT                                        OUT
                                    ---                                        ---
   EVAPOTRANSPIRATION =        1499570.88     EVAPOTRANSPIRATION =           2459.80
           STREAMFLOW =        1157228.08             STREAMFLOW =          11891.37
     GW BOUNDARY FLOW =           4019.75       GW BOUNDARY FLOW =             35.75

   INFLOWS - OUTFLOWS =         -64425.22     INFLOWS - OUTFLOWS =         -14386.52
             --------                                   --------

 TOTAL STORAGE CHANGE =         -88176.57         STORAGE CHANGE =         -14390.35
       --------------                             --------------
         LAND SURFACE =         356897.60           LAND SURFACE =           -433.81
            SOIL ZONE =        1553071.60              SOIL ZONE =          -1962.90
     UNSATURATED ZONE =       -2681218.31       UNSATURATED ZONE =         -13122.96
       SATURATED ZONE =         683072.15         SATURATED ZONE =           1129.30

 OVERALL BUDGET ERROR =          23751.35           BUDGET ERROR =              3.83


  PERCENT DISCREPANCY =              0.89    PERCENT DISCREPANCY =              0.03



1
 SUMMARY VOLUMETRIC BUDGET FOR GSFLOW 
 DATE: 01 27 1991              CUMULATIVE TIME STEP:      27
 MODFLOW STRESS PERIOD      5     CURRENT TIME STEP:     119     ITERATIONS:       5

 -----------------------------------------------------------------------------------

   CUMULATIVE VOLUMES               L**3   RATES FOR THIS TIME STEP           L**3/T
   ------------------                      ------------------------

                                     IN                                         IN
                                     --                                         --
        PRECIPITATION =        2596386.94          PRECIPITATION =                  
           STREAMFLOW =                               STREAMFLOW =                  
     GW BOUNDARY FLOW =              9.65       GW BOUNDARY FLOW =              0.48


                                    OUT                                        OUT
                                    ---                                        ---
   EVAPOTRANSPIRATION =        1525463.37     EVAPOTRANSPIRATION =           1702.75
           STREAMFLOW =        1240481.74             STREAMFLOW =          11917.07
     GW BOUNDARY FLOW =           4269.96       GW BOUNDARY FLOW =             35.74

   INFLOWS - OUTFLOWS =        -173818.47     INFLOWS - OUTFLOWS =         -13655.08
             --------                                   --------

 TOTAL STORAGE CHANGE =        -197813.41         STORAGE CHANGE =         -13665.44
       --------------                             --------------
         LAND SURFACE =         323033.09           LAND SURFACE =           -547.84
            SOIL ZONE =        1561720.17              SOIL ZONE =          -1066.23
     UNSATURATED ZONE =       -2771137.93       UNSATURATED ZONE =         -12627.80
       SATURATED ZONE =         688570.81         SATURATED ZONE =            576.43

 OVERALL BUDGET ERROR =          23994.94           BUDGET ERROR =             10.36


  PERCENT DISCREPANCY =              0.86    PERCENT DISCREPANCY =              0.08



1
 SUMMARY VOLUMETRIC BUDGET FOR GSFLOW 
 DATE: 02 03 1991              CUMULATIVE TIME STEP:       3
 MODFLOW STRESS PERIOD      6     CURRENT TIME STEP:     126     ITERATIONS:       6

 -----------------------------------------------------------------------------------

   CUMULATIVE VOLUMES               L**3   RATES FOR THIS TIME STEP           L**3/T
   ------------------                      ------------------------

                                     IN                                         IN
                                     --                                         --
        PRECIPITATION =        3228422.31          PRECIPITATION =          30459.53
           STREAMFLOW =                               STREAMFLOW =                  
     GW BOUNDARY FLOW =             13.30       GW BOUNDARY FLOW =              0.55


                                    OUT                                        OUT
                                    ---                                        ---
   EVAPOTRANSPIRATION =        1632477.05     EVAPOTRANSPIRATION =          21403.91
           STREAMFLOW =        1325326.18             STREAMFLOW =          12221.61
     GW BOUNDARY FLOW =           4520.08       GW BOUNDARY FLOW =             35.74

   INFLOWS - OUTFLOWS =         266112.31     INFLOWS - OUTFLOWS =          -3201.17
             --------                                   --------

 TOTAL STORAGE CHANGE =         234948.66         STORAGE CHANGE =          -3478.19
       --------------                             --------------
         LAND SURFACE =         157683.43           LAND SURFACE =         -26376.35
            SOIL ZONE =        2245257.88              SOIL ZONE =          35088.40
     UNSATURATED ZONE =       -2857744.40       UNSATURATED ZONE =         -12194.26
       SATURATED ZONE =         689751.24         SATURATED ZONE =              4.01

 OVERALL BUDGET ERROR =          31163.64           BUDGET ERROR =            277.02


  PERCENT DISCREPANCY =              0.97    PERCENT DISCREPANCY =              0.82



1
 SUMMARY VOLUMETRIC BUDGET FOR GSFLOW 
 DATE: 02 10 1991              CUMULATIVE TIME STEP:      10
 MODFLOW STRESS PERIOD      6     CURRENT TIME STEP:     133     ITERATIONS:       5

 -----------------------------------------------------------------------------------

   CUMULATIVE VOLUMES               L**3   RATES FOR THIS TIME STEP           L**3/T
   ------------------                      ------------------------

                                     IN                                         IN
                                     --                                         --
        PRECIPITATION =        3510173.01          PRECIPITATION =                  
           STREAMFLOW =                               STREAMFLOW =                  
     GW BOUNDARY FLOW =             17.48       GW BOUNDARY FLOW =              0.63


                                    OUT                                        OUT
                                    ---                                        ---
   EVAPOTRANSPIRATION =        1800142.90     EVAPOTRANSPIRATION =          25663.26
           STREAMFLOW =        1411279.09             STREAMFLOW =          12140.87
     GW BOUNDARY FLOW =           4770.17       GW BOUNDARY FLOW =             35.72

   INFLOWS - OUTFLOWS =         293998.34     INFLOWS - OUTFLOWS =         -37839.22
             --------                                   --------

 TOTAL STORAGE CHANGE =         259864.16         STORAGE CHANGE =         -37786.61
       --------------                             --------------
         LAND SURFACE =          75877.11           LAND SURFACE =          -8469.89
            SOIL ZONE =        2437152.83              SOIL ZONE =         -17105.21
     UNSATURATED ZONE =       -2940933.96       UNSATURATED ZONE =         -11690.37
       SATURATED ZONE =         687767.58         SATURATED ZONE =           -521.15

 OVERALL BUDGET ERROR =          34134.17           BUDGET ERROR =            -52.61


  PERCENT DISCREPANCY =              0.98    PERCENT DISCREPANCY =             -0.14



1
 SUMMARY VOLUMETRIC BUDGET FOR GSFLOW 
 DATE: 02 17 1991              CUMULATIVE TIME STEP:      17
 MODFLOW STRESS PERIOD      6     CURRENT TIME STEP:     140     ITERATIONS:       5

 -----------------------------------------------------------------------------------

   CUMULATIVE VOLUMES               L**3   RATES FOR THIS TIME STEP           L**3/T
   ------------------                      ------------------------

                                     IN                                         IN
                                     --                                         --
        PRECIPITATION =        3510173.01          PRECIPITATION =                  
           STREAMFLOW =                               STREAMFLOW =                  
     GW BOUNDARY FLOW =             22.15       GW BOUNDARY FLOW =              0.70


                                    OUT                                        OUT
                                    ---                                        ---
   EVAPOTRANSPIRATION =        2043175.88     EVAPOTRANSPIRATION =          23705.65
           STREAMFLOW =        1495848.35             STREAMFLOW =          12084.00
     GW BOUNDARY FLOW =           5020.09       GW BOUNDARY FLOW =             35.68

   INFLOWS - OUTFLOWS =         -33849.16     INFLOWS - OUTFLOWS =         -35824.64
             --------                                   --------

 TOTAL STORAGE CHANGE =         -67330.29         STORAGE CHANGE =         -35744.75
       --------------                             --------------
         LAND SURFACE =          17890.99           LAND SURFACE =          -1143.67
            SOIL ZONE =        2253414.69              SOIL ZONE =         -22470.75
     UNSATURATED ZONE =       -3020560.66       UNSATURATED ZONE =         -11090.76
       SATURATED ZONE =         681924.01         SATURATED ZONE =          -1039.59

 OVERALL BUDGET ERROR =          33481.13           BUDGET ERROR =            -79.88


  PERCENT DISCREPANCY =              0.94    PERCENT DISCREPANCY =             -0.22



1
 SUMMARY VOLUMETRIC BUDGET FOR GSFLOW 
 DATE: 02 24 1991              CUMULATIVE TIME STEP:      24
 MODFLOW STRESS PERIOD      6     CURRENT TIME STEP:     147     ITERATIONS:       5

 -----------------------------------------------------------------------------------

   CUMULATIVE VOLUMES               L**3   RATES FOR THIS TIME STEP           L**3/T
   ------------------                      ------------------------

                                     IN                                         IN
                                     --                                         --
        PRECIPITATION =        3510173.01          PRECIPITATION =                  
           STREAMFLOW =                               STREAMFLOW =                  
     GW BOUNDARY FLOW =             27.30       GW BOUNDARY FLOW =              0.76


                                    OUT                                        OUT
                                    ---                                        ---
   EVAPOTRANSPIRATION =        2256616.46     EVAPOTRANSPIRATION =          21630.12
           STREAMFLOW =        1580007.16             STREAMFLOW =          11996.69
     GW BOUNDARY FLOW =           5269.12       GW BOUNDARY FLOW =             35.48

   INFLOWS - OUTFLOWS =        -331692.42     INFLOWS - OUTFLOWS =         -33661.54
             --------                                   --------

 TOTAL STORAGE CHANGE =        -364448.71         STORAGE CHANGE =         -33585.45
       --------------                             --------------
         LAND SURFACE =           7435.72           LAND SURFACE =           -217.69
            SOIL ZONE =        2052181.64              SOIL ZONE =         -21120.42
     UNSATURATED ZONE =       -3096545.25       UNSATURATED ZONE =         -10680.56
       SATURATED ZONE =         672478.40         SATURATED ZONE =          -1566.79

 OVERALL BUDGET ERROR =          32756.29           BUDGET ERROR =            -76.08


  PERCENT DISCREPANCY =              0.85    PERCENT DISCREPANCY =             -0.23



1
 SUMMARY VOLUMETRIC BUDGET FOR GSFLOW 
 DATE: 03 03 1991              CUMULATIVE TIME STEP:       3
 MODFLOW STRESS PERIOD      7     CURRENT TIME STEP:     154     ITERATIONS:       5

 -----------------------------------------------------------------------------------

   CUMULATIVE VOLUMES               L**3   RATES FOR THIS TIME STEP           L**3/T
   ------------------                      ------------------------

                                     IN                                         IN
                                     --                                         --
        PRECIPITATION =        6220189.63          PRECIPITATION =        1243187.24
           STREAMFLOW =                               STREAMFLOW =                  
     GW BOUNDARY FLOW =             32.90       GW BOUNDARY FLOW =              0.83


                                    OUT                                        OUT
                                    ---                                        ---
   EVAPOTRANSPIRATION =        2408690.93     EVAPOTRANSPIRATION =           8454.44
           STREAMFLOW =        1663715.85             STREAMFLOW =          12306.29
     GW BOUNDARY FLOW =           5516.82       GW BOUNDARY FLOW =             35.34

   INFLOWS - OUTFLOWS =        2142298.92     INFLOWS - OUTFLOWS =        1222392.00
             --------                                   --------

 TOTAL STORAGE CHANGE =        2102473.89         STORAGE CHANGE =        1214852.89
       --------------                             --------------
         LAND SURFACE =        2352761.88           LAND SURFACE =         894135.84
            SOIL ZONE =        2261325.20              SOIL ZONE =         333375.07
     UNSATURATED ZONE =       -3169500.94       UNSATURATED ZONE =         -10272.34
       SATURATED ZONE =         657886.89         SATURATED ZONE =          -2385.70

 OVERALL BUDGET ERROR =          39825.03           BUDGET ERROR =           7539.11


  PERCENT DISCREPANCY =              0.64    PERCENT DISCREPANCY =              0.61



1
 SUMMARY VOLUMETRIC BUDGET FOR GSFLOW 
 DATE: 03 10 1991              CUMULATIVE TIME STEP:      10
 MODFLOW STRESS PERIOD      7     CURRENT TIME STEP:     161     ITERATIONS:       5

 -----------------------------------------------------------------------------------

   CUMULATIVE VOLUMES               L**3   RATES FOR THIS TIME STEP           L**3/T
   ------------------                      ------------------------

                                     IN                                         IN
                                     --                                         --
        PRECIPITATION =        8746030.42          PRECIPITATION =          32888.55
           STREAMFLOW =                               STREAMFLOW =                  
     GW BOUNDARY FLOW =             38.93       GW BOUNDARY FLOW =              0.89


                                    OUT                                        OUT
                                    ---                                        ---
   EVAPOTRANSPIRATION =        2481959.29     EVAPOTRANSPIRATION =           8863.51
           STREAMFLOW =        1850043.75             STREAMFLOW =          22236.01
     GW BOUNDARY FLOW =           5765.78       GW BOUNDARY FLOW =             35.45

   INFLOWS - OUTFLOWS =        4408300.53     INFLOWS - OUTFLOWS =           1754.47
             --------                                   --------

 TOTAL STORAGE CHANGE =        4355119.46         STORAGE CHANGE =           1534.87
       --------------                             --------------
         LAND SURFACE =        2523463.28           LAND SURFACE =         -14137.08
            SOIL ZONE =        4369364.03              SOIL ZONE =          18898.79
     UNSATURATED ZONE =       -3190356.56       UNSATURATED ZONE =          -1921.22
       SATURATED ZONE =         652647.66         SATURATED ZONE =          -1305.65

 OVERALL BUDGET ERROR =          53181.07           BUDGET ERROR =            219.59


  PERCENT DISCREPANCY =              0.61    PERCENT DISCREPANCY =              0.67



1
 SUMMARY VOLUMETRIC BUDGET FOR GSFLOW 
 DATE: 03 17 1991              CUMULATIVE TIME STEP:      17
 MODFLOW STRESS PERIOD      7     CURRENT TIME STEP:     168     ITERATIONS:       5

 -----------------------------------------------------------------------------------

   CUMULATIVE VOLUMES               L**3   RATES FOR THIS TIME STEP           L**3/T
   ------------------                      ------------------------

                                     IN                                         IN
                                     --                                         --
        PRECIPITATION =        9897129.71          PRECIPITATION =         157865.04
           STREAMFLOW =                               STREAMFLOW =                  
     GW BOUNDARY FLOW =             45.37       GW BOUNDARY FLOW =              0.95


                                    OUT                                        OUT
                                    ---                                        ---
   EVAPOTRANSPIRATION =        2509798.12     EVAPOTRANSPIRATION =           8079.77
           STREAMFLOW =        1993251.79             STREAMFLOW =          19805.50
     GW BOUNDARY FLOW =           6013.07       GW BOUNDARY FLOW =             35.25

   INFLOWS - OUTFLOWS =        5388112.10     INFLOWS - OUTFLOWS =         129945.47
             --------                                   --------

 TOTAL STORAGE CHANGE =        5335036.66         STORAGE CHANGE =         129990.39
       --------------                             --------------
         LAND SURFACE =        3672302.31           LAND SURFACE =         157496.61
            SOIL ZONE =        4229683.78              SOIL ZONE =         -22764.16
     UNSATURATED ZONE =       -3207299.30       UNSATURATED ZONE =          -2698.16
       SATURATED ZONE =         640348.60         SATURATED ZONE =          -2043.93

 OVERALL BUDGET ERROR =          53075.44           BUDGET ERROR =            -44.91


  PERCENT DISCREPANCY =              0.54    PERCENT DISCREPANCY =             -0.03



1
 SUMMARY VOLUMETRIC BUDGET FOR GSFLOW 
 DATE: 03 24 1991              CUMULATIVE TIME STEP:      24
 MODFLOW STRESS PERIOD      7     CURRENT TIME STEP:     175     ITERATIONS:       5

 -----------------------------------------------------------------------------------

   CUMULATIVE VOLUMES               L**3   RATES FOR THIS TIME STEP           L**3/T
   ------------------                      ------------------------

                                     IN                                         IN
                                     --                                         --
        PRECIPITATION =        1.1673D+07          PRECIPITATION =        1230031.83
           STREAMFLOW =                               STREAMFLOW =                  
     GW BOUNDARY FLOW =             52.22       GW BOUNDARY FLOW =              1.00


                                    OUT                                        OUT
                                    ---                                        ---
   EVAPOTRANSPIRATION =        2548622.06     EVAPOTRANSPIRATION =           4663.50
           STREAMFLOW =        2127808.87             STREAMFLOW =          18923.19
     GW BOUNDARY FLOW =           6259.16       GW BOUNDARY FLOW =             35.09

   INFLOWS - OUTFLOWS =        6990473.63     INFLOWS - OUTFLOWS =        1206411.06
             --------                                   --------

 TOTAL STORAGE CHANGE =        6937342.97         STORAGE CHANGE =        1206413.90
       --------------                             --------------
         LAND SURFACE =        5426161.22           LAND SURFACE =        1230031.83
            SOIL ZONE =        4116662.67              SOIL ZONE =         -17688.30
     UNSATURATED ZONE =       -3229829.58       UNSATURATED ZONE =          -3465.78
       SATURATED ZONE =         624347.19         SATURATED ZONE =          -2463.89

 OVERALL BUDGET ERROR =          53130.65           BUDGET ERROR =             -2.84


  PERCENT DISCREPANCY =              0.46    PERCENT DISCREPANCY =             -0.00



1
 SUMMARY VOLUMETRIC BUDGET FOR GSFLOW 
 DATE: 03 31 1991              CUMULATIVE TIME STEP:      31
 MODFLOW STRESS PERIOD      7     CURRENT TIME STEP:     182     ITERATIONS:       6

 -----------------------------------------------------------------------------------

   CUMULATIVE VOLUMES               L**3   RATES FOR THIS TIME STEP           L**3/T
   ------------------                      ------------------------

                                     IN                                         IN
                                     --                                         --
        PRECIPITATION =        1.2495D+07          PRECIPITATION =                  
           STREAMFLOW =                               STREAMFLOW =                  
     GW BOUNDARY FLOW =             59.46       GW BOUNDARY FLOW =              1.06


                                    OUT                                        OUT
                                    ---                                        ---
   EVAPOTRANSPIRATION =        2670322.14     EVAPOTRANSPIRATION =          48028.88
           STREAMFLOW =        2262394.61             STREAMFLOW =          22427.75
     GW BOUNDARY FLOW =           6504.27       GW BOUNDARY FLOW =             35.02

   INFLOWS - OUTFLOWS =        7556163.73     INFLOWS - OUTFLOWS =         -70490.60
             --------                                   --------

 TOTAL STORAGE CHANGE =        7501646.42         STORAGE CHANGE =         -71434.75
       --------------                             --------------
         LAND SURFACE =        5977198.26           LAND SURFACE =        -148137.48
            SOIL ZONE =        4172312.56              SOIL ZONE =          81882.10
     UNSATURATED ZONE =       -3254041.22       UNSATURATED ZONE =          -2459.60
       SATURATED ZONE =         606175.13         SATURATED ZONE =          -2719.81

 OVERALL BUDGET ERROR =          54517.31           BUDGET ERROR =            944.15


  PERCENT DISCREPANCY =              0.44    PERCENT DISCREPANCY =              1.33



1
 SUMMARY VOLUMETRIC BUDGET FOR GSFLOW 
 DATE: 04 07 1991              CUMULATIVE TIME STEP:       7
 MODFLOW STRESS PERIOD      8     CURRENT TIME STEP:     189     ITERATIONS:       7

 -----------------------------------------------------------------------------------

   CUMULATIVE VOLUMES               L**3   RATES FOR THIS TIME STEP           L**3/T
   ------------------                      ------------------------

                                     IN                                         IN
                                     --                                         --
        PRECIPITATION =        1.3018D+07          PRECIPITATION =                  
           STREAMFLOW =                               STREAMFLOW =                  
     GW BOUNDARY FLOW =             67.06       GW BOUNDARY FLOW =              1.11


                                    OUT                                        OUT
                                    ---                                        ---
   EVAPOTRANSPIRATION =        2978367.03     EVAPOTRANSPIRATION =          15949.26
           STREAMFLOW =        2585036.81             STREAMFLOW =          64539.10
     GW BOUNDARY FLOW =           6751.72       GW BOUNDARY FLOW =             35.61

   INFLOWS - OUTFLOWS =        7447648.25     INFLOWS - OUTFLOWS =         -80522.87
             --------                                   --------

 TOTAL STORAGE CHANGE =        7384004.74         STORAGE CHANGE =         -81100.58
       --------------                             --------------
         LAND SURFACE =        4335933.24           LAND SURFACE =         -73164.41
            SOIL ZONE =        5687518.89              SOIL ZONE =         -15245.03
     UNSATURATED ZONE =       -3230446.57       UNSATURATED ZONE =           9289.74
       SATURATED ZONE =         590997.23         SATURATED ZONE =          -1980.93

 OVERALL BUDGET ERROR =          63643.51           BUDGET ERROR =            577.71


  PERCENT DISCREPANCY =              0.49    PERCENT DISCREPANCY =              0.71



1
 SUMMARY VOLUMETRIC BUDGET FOR GSFLOW 
 DATE: 04 14 1991              CUMULATIVE TIME STEP:      14
 MODFLOW STRESS PERIOD      8     CURRENT TIME STEP:     196     ITERATIONS:       7

 -----------------------------------------------------------------------------------

   CUMULATIVE VOLUMES               L**3   RATES FOR THIS TIME STEP           L**3/T
   ------------------                      ------------------------

                                     IN                                         IN
                                     --                                         --
        PRECIPITATION =        1.3018D+07          PRECIPITATION =                  
           STREAMFLOW =                               STREAMFLOW =                  
     GW BOUNDARY FLOW =             74.99       GW BOUNDARY FLOW =              1.15


                                    OUT                                        OUT
                                    ---                                        ---
   EVAPOTRANSPIRATION =        3162437.32     EVAPOTRANSPIRATION =          42038.25
           STREAMFLOW =        3083127.64             STREAMFLOW =          75838.82
     GW BOUNDARY FLOW =           7001.08       GW BOUNDARY FLOW =             35.63

   INFLOWS - OUTFLOWS =        6765245.69     INFLOWS - OUTFLOWS =        -117911.56
             --------                                   --------

 TOTAL STORAGE CHANGE =        6698357.99         STORAGE CHANGE =        -118780.34
       --------------                             --------------
         LAND SURFACE =        3672284.11           LAND SURFACE =        -192335.10
            SOIL ZONE =        5616405.75              SOIL ZONE =          66811.16
     UNSATURATED ZONE =       -3168554.99       UNSATURATED ZONE =           8392.81
       SATURATED ZONE =         578220.85         SATURATED ZONE =          -1649.26

 OVERALL BUDGET ERROR =          66887.70           BUDGET ERROR =            868.79


  PERCENT DISCREPANCY =              0.52    PERCENT DISCREPANCY =              0.73



1
 SUMMARY VOLUMETRIC BUDGET FOR GSFLOW 
 DATE: 04 21 1991              CUMULATIVE TIME STEP:      21
 MODFLOW STRESS PERIOD      8     CURRENT TIME STEP:     203     ITERATIONS:       9

 -----------------------------------------------------------------------------------

   CUMULATIVE VOLUMES               L**3   RATES FOR THIS TIME STEP           L**3/T
   ------------------                      ------------------------

                                     IN                                         IN
                                     --                                         --
        PRECIPITATION =        1.3034D+07          PRECIPITATION =                  
           STREAMFLOW =                               STREAMFLOW =                  
     GW BOUNDARY FLOW =             83.21       GW BOUNDARY FLOW =              1.19


                                    OUT                                        OUT
                                    ---                                        ---
   EVAPOTRANSPIRATION =        3416065.11     EVAPOTRANSPIRATION =          46890.67
           STREAMFLOW =        3655919.61             STREAMFLOW =          93508.24
     GW BOUNDARY FLOW =           7250.66       GW BOUNDARY FLOW =             35.76

   INFLOWS - OUTFLOWS =        5954909.92     INFLOWS - OUTFLOWS =        -140433.48
             --------                                   --------

 TOTAL STORAGE CHANGE =        5883329.05         STORAGE CHANGE =        -141259.31
       --------------                             --------------
         LAND SURFACE =        2500870.94           LAND SURFACE =        -216968.59
            SOIL ZONE =        5920221.98              SOIL ZONE =          66460.52
     UNSATURATED ZONE =       -3104860.10       UNSATURATED ZONE =          10601.40
       SATURATED ZONE =         567093.60         SATURATED ZONE =          -1352.69

 OVERALL BUDGET ERROR =          71580.87           BUDGET ERROR =            825.83


  PERCENT DISCREPANCY =              0.55    PERCENT DISCREPANCY =              0.59



1
 SUMMARY VOLUMETRIC BUDGET FOR GSFLOW 
 DATE: 04 28 1991              CUMULATIVE TIME STEP:      28
 MODFLOW STRESS PERIOD      8     CURRENT TIME STEP:     210     ITERATIONS:       6

 -----------------------------------------------------------------------------------

   CUMULATIVE VOLUMES               L**3   RATES FOR THIS TIME STEP           L**3/T
   ------------------                      ------------------------

                                     IN                                         IN
                                     --                                         --
        PRECIPITATION =        1.3303D+07          PRECIPITATION =                  
           STREAMFLOW =                               STREAMFLOW =                  
     GW BOUNDARY FLOW =             91.70       GW BOUNDARY FLOW =              1.23


                                    OUT                                        OUT
                                    ---                                        ---
   EVAPOTRANSPIRATION =        3684466.48     EVAPOTRANSPIRATION =          58222.39
           STREAMFLOW =        4327317.57             STREAMFLOW =          95180.88
     GW BOUNDARY FLOW =           7500.81       GW BOUNDARY FLOW =             35.69

   INFLOWS - OUTFLOWS =        5284237.35     INFLOWS - OUTFLOWS =        -153437.73
             --------                                   --------

 TOTAL STORAGE CHANGE =        5208862.66         STORAGE CHANGE =        -153754.53
       --------------                             --------------
         LAND SURFACE =        1748447.64           LAND SURFACE =        -137153.52
            SOIL ZONE =        5929580.29              SOIL ZONE =         -25891.22
     UNSATURATED ZONE =       -3029303.57       UNSATURATED ZONE =          10326.19
       SATURATED ZONE =         560135.28         SATURATED ZONE =          -1036.04

 OVERALL BUDGET ERROR =          75374.69           BUDGET ERROR =            316.81


  PERCENT DISCREPANCY =              0.57    PERCENT DISCREPANCY =              0.21



1
 SUMMARY VOLUMETRIC BUDGET FOR GSFLOW 
 DATE: 05 05 1991              CUMULATIVE TIME STEP:       5
 MODFLOW STRESS PERIOD      9     CURRENT TIME STEP:     217     ITERATIONS:      72

 -----------------------------------------------------------------------------------

   CUMULATIVE VOLUMES               L**3   RATES FOR THIS TIME STEP           L**3/T
   ------------------                      ------------------------

                                     IN                                         IN
                                     --                                         --
        PRECIPITATION =        1.3510D+07          PRECIPITATION =                  
           STREAMFLOW =                               STREAMFLOW =                  
     GW BOUNDARY FLOW =            100.46       GW BOUNDARY FLOW =              1.27


                                    OUT                                        OUT
                                    ---                                        ---
   EVAPOTRANSPIRATION =        4061967.12     EVAPOTRANSPIRATION =          90404.20
           STREAMFLOW =        4936273.28             STREAMFLOW =          86692.13
     GW BOUNDARY FLOW =           7749.42       GW BOUNDARY FLOW =             35.45

   INFLOWS - OUTFLOWS =        4503818.76     INFLOWS - OUTFLOWS =        -177130.51
             --------                                   --------

 TOTAL STORAGE CHANGE =        4426880.09         STORAGE CHANGE =        -177252.55
       --------------                             --------------
         LAND SURFACE =        1036420.07           LAND SURFACE =        -150153.36
            SOIL ZONE =        5801189.70              SOIL ZONE =         -35908.04
     UNSATURATED ZONE =       -2964629.17       UNSATURATED ZONE =           7913.20
       SATURATED ZONE =         553896.05         SATURATED ZONE =            895.59

 OVERALL BUDGET ERROR =          76938.66           BUDGET ERROR =            122.03


  PERCENT DISCREPANCY =              0.57    PERCENT DISCREPANCY =              0.07



1
 SUMMARY VOLUMETRIC BUDGET FOR GSFLOW 
 DATE: 05 12 1991              CUMULATIVE TIME STEP:      12
 MODFLOW STRESS PERIOD      9     CURRENT TIME STEP:     224     ITERATIONS:       7

 -----------------------------------------------------------------------------------

   CUMULATIVE VOLUMES               L**3   RATES FOR THIS TIME STEP           L**3/T
   ------------------                      ------------------------

                                     IN                                         IN
                                     --                                         --
        PRECIPITATION =        1.4029D+07          PRECIPITATION =                  
           STREAMFLOW =                               STREAMFLOW =                  
     GW BOUNDARY FLOW =            109.48       GW BOUNDARY FLOW =              1.31


                                    OUT                                        OUT
                                    ---                                        ---
   EVAPOTRANSPIRATION =        4457582.82     EVAPOTRANSPIRATION =          68948.89
           STREAMFLOW =        5504046.36             STREAMFLOW =          84225.13
     GW BOUNDARY FLOW =           7996.31       GW BOUNDARY FLOW =             35.23

   INFLOWS - OUTFLOWS =        4059706.14     INFLOWS - OUTFLOWS =        -153207.94
             --------                                   --------

 TOTAL STORAGE CHANGE =        3980870.57         STORAGE CHANGE =        -153263.34
       --------------                             --------------
         LAND SURFACE =         579124.41           LAND SURFACE =        -205427.93
            SOIL ZONE =        5760808.76              SOIL ZONE =          45093.75
     UNSATURATED ZONE =       -2904206.63       UNSATURATED ZONE =           8395.17
       SATURATED ZONE =         545140.17         SATURATED ZONE =          -1324.40

 OVERALL BUDGET ERROR =          78835.57           BUDGET ERROR =             55.40


  PERCENT DISCREPANCY =              0.56    PERCENT DISCREPANCY =              0.04



1
 SUMMARY VOLUMETRIC BUDGET FOR GSFLOW 
 DATE: 05 19 1991              CUMULATIVE TIME STEP:      19
 MODFLOW STRESS PERIOD      9     CURRENT TIME STEP:     231     ITERATIONS:       7

 -----------------------------------------------------------------------------------

   CUMULATIVE VOLUMES               L**3   RATES FOR THIS TIME STEP           L**3/T
   ------------------                      ------------------------

                                     IN                                         IN
                                     --                                         --
        PRECIPITATION =        1.4365D+07          PRECIPITATION =                  
           STREAMFLOW =                               STREAMFLOW =                  
     GW BOUNDARY FLOW =            118.77       GW BOUNDARY FLOW =              1.34


                                    OUT                                        OUT
                                    ---                                        ---
   EVAPOTRANSPIRATION =        4896251.48     EVAPOTRANSPIRATION =          20442.85
           STREAMFLOW =        5996663.24             STREAMFLOW =          62346.77
     GW BOUNDARY FLOW =           8240.99       GW BOUNDARY FLOW =             34.77

   INFLOWS - OUTFLOWS =        3464341.38     INFLOWS - OUTFLOWS =         -82823.04
             --------                                   --------

 TOTAL STORAGE CHANGE =        3384607.01         STORAGE CHANGE =         -82868.37
       --------------                             --------------
         LAND SURFACE =         228252.15           LAND SURFACE =         -22354.64
            SOIL ZONE =        5477878.33              SOIL ZONE =         -64538.65
     UNSATURATED ZONE =       -2857099.82       UNSATURATED ZONE =           5421.64
       SATURATED ZONE =         535572.05         SATURATED ZONE =          -1396.79

 OVERALL BUDGET ERROR =          79734.36           BUDGET ERROR =             45.33


  PERCENT DISCREPANCY =              0.56    PERCENT DISCREPANCY =              0.05



1
 SUMMARY VOLUMETRIC BUDGET FOR GSFLOW 
 DATE: 05 26 1991              CUMULATIVE TIME STEP:      26
 MODFLOW STRESS PERIOD      9     CURRENT TIME STEP:     238     ITERATIONS:       6

 -----------------------------------------------------------------------------------

   CUMULATIVE VOLUMES               L**3   RATES FOR THIS TIME STEP           L**3/T
   ------------------                      ------------------------

                                     IN                                         IN
                                     --                                         --
        PRECIPITATION =        1.4426D+07          PRECIPITATION =                  
           STREAMFLOW =                               STREAMFLOW =                  
     GW BOUNDARY FLOW =            128.34       GW BOUNDARY FLOW =              1.39


                                    OUT                                        OUT
                                    ---                                        ---
   EVAPOTRANSPIRATION =        5580891.35     EVAPOTRANSPIRATION =          76900.78
           STREAMFLOW =        6350574.50             STREAMFLOW =          37387.45
     GW BOUNDARY FLOW =           8482.45       GW BOUNDARY FLOW =             34.21

   INFLOWS - OUTFLOWS =        2486677.65     INFLOWS - OUTFLOWS =        -114321.06
             --------                                   --------

 TOTAL STORAGE CHANGE =        2407017.92         STORAGE CHANGE =        -114432.18
       --------------                             --------------
         LAND SURFACE =          55233.90           LAND SURFACE =          -8157.37
            SOIL ZONE =        4665979.29              SOIL ZONE =        -103951.67
     UNSATURATED ZONE =       -2837937.95       UNSATURATED ZONE =           -294.56
       SATURATED ZONE =         523737.92         SATURATED ZONE =          -2028.64

 OVERALL BUDGET ERROR =          79659.73           BUDGET ERROR =            111.13


  PERCENT DISCREPANCY =              0.55    PERCENT DISCREPANCY =              0.10



1
 SUMMARY VOLUMETRIC BUDGET FOR GSFLOW 
 DATE: 06 02 1991              CUMULATIVE TIME STEP:       2
 MODFLOW STRESS PERIOD     10     CURRENT TIME STEP:     245     ITERATIONS:       6

 -----------------------------------------------------------------------------------

   CUMULATIVE VOLUMES               L**3   RATES FOR THIS TIME STEP           L**3/T
   ------------------                      ------------------------

                                     IN                                         IN
                                     --                                         --
        PRECIPITATION =        1.4671D+07          PRECIPITATION =                  
           STREAMFLOW =                               STREAMFLOW =                  
     GW BOUNDARY FLOW =            138.20       GW BOUNDARY FLOW =              1.43


                                    OUT                                        OUT
                                    ---                                        ---
   EVAPOTRANSPIRATION =        6170070.04     EVAPOTRANSPIRATION =         127566.80
           STREAMFLOW =        6577518.48             STREAMFLOW =          28388.69
     GW BOUNDARY FLOW =           8720.61       GW BOUNDARY FLOW =             33.88

   INFLOWS - OUTFLOWS =        1914803.88     INFLOWS - OUTFLOWS =        -155987.94
             --------                                   --------

 TOTAL STORAGE CHANGE =        1835562.67         STORAGE CHANGE =        -155405.35
       --------------                             --------------
         LAND SURFACE =          19760.70           LAND SURFACE =          -4094.13
            SOIL ZONE =        4161610.08              SOIL ZONE =        -145598.29
     UNSATURATED ZONE =       -2852140.87       UNSATURATED ZONE =          -2950.77
       SATURATED ZONE =         506327.55         SATURATED ZONE =          -2762.22

 OVERALL BUDGET ERROR =          79241.22           BUDGET ERROR =           -582.59


  PERCENT DISCREPANCY =              0.54    PERCENT DISCREPANCY =             -0.37



1
 SUMMARY VOLUMETRIC BUDGET FOR GSFLOW 
 DATE: 06 09 1991              CUMULATIVE TIME STEP:       9
 MODFLOW STRESS PERIOD     10     CURRENT TIME STEP:     252     ITERATIONS:       7

 -----------------------------------------------------------------------------------

   CUMULATIVE VOLUMES               L**3   RATES FOR THIS TIME STEP           L**3/T
   ------------------                      ------------------------

                                     IN                                         IN
                                     --                                         --
        PRECIPITATION =        1.4671D+07          PRECIPITATION =                  
           STREAMFLOW =                               STREAMFLOW =                  
     GW BOUNDARY FLOW =            148.37       GW BOUNDARY FLOW =              1.47


                                    OUT                                        OUT
                                    ---                                        ---
   EVAPOTRANSPIRATION =        6958551.28     EVAPOTRANSPIRATION =         172470.54
           STREAMFLOW =        6735883.46             STREAMFLOW =          19081.09
     GW BOUNDARY FLOW =           8956.25       GW BOUNDARY FLOW =             33.52

   INFLOWS - OUTFLOWS =         967732.18     INFLOWS - OUTFLOWS =        -191583.68
             --------                                   --------

 TOTAL STORAGE CHANGE =         890007.63         STORAGE CHANGE =        -190879.10
       --------------                             --------------
         LAND SURFACE =           3957.39           LAND SURFACE =          -2186.13
            SOIL ZONE =        3289829.26              SOIL ZONE =        -178840.04
     UNSATURATED ZONE =       -2887067.43       UNSATURATED ZONE =          -6065.33
       SATURATED ZONE =         483282.76         SATURATED ZONE =          -3787.67

 OVERALL BUDGET ERROR =          77724.54           BUDGET ERROR =           -704.58


  PERCENT DISCREPANCY =              0.53    PERCENT DISCREPANCY =             -0.37



1
 SUMMARY VOLUMETRIC BUDGET FOR GSFLOW 
 DATE: 06 16 1991              CUMULATIVE TIME STEP:      16
 MODFLOW STRESS PERIOD     10     CURRENT TIME STEP:     259     ITERATIONS:       6

 -----------------------------------------------------------------------------------

   CUMULATIVE VOLUMES               L**3   RATES FOR THIS TIME STEP           L**3/T
   ------------------                      ------------------------

                                     IN                                         IN
                                     --                                         --
        PRECIPITATION =        1.4671D+07          PRECIPITATION =                  
           STREAMFLOW =                               STREAMFLOW =                  
     GW BOUNDARY FLOW =            158.85       GW BOUNDARY FLOW =              1.52


                                    OUT                                        OUT
                                    ---                                        ---
   EVAPOTRANSPIRATION =        7975186.38     EVAPOTRANSPIRATION =         117014.80
           STREAMFLOW =        6838838.51             STREAMFLOW =          12804.04
     GW BOUNDARY FLOW =           9188.34       GW BOUNDARY FLOW =             33.04

   INFLOWS - OUTFLOWS =        -152079.58     INFLOWS - OUTFLOWS =        -129850.36
             --------                                   --------

 TOTAL STORAGE CHANGE =        -224472.43         STORAGE CHANGE =        -129073.14
       --------------                             --------------
         LAND SURFACE =            106.65           LAND SURFACE =            -66.98
            SOIL ZONE =        2293424.02              SOIL ZONE =        -107783.00
     UNSATURATED ZONE =       -2969195.61       UNSATURATED ZONE =         -15784.37
       SATURATED ZONE =         451186.40         SATURATED ZONE =          -5438.85

 OVERALL BUDGET ERROR =          72392.85           BUDGET ERROR =           -777.22


  PERCENT DISCREPANCY =              0.49    PERCENT DISCREPANCY =             -0.60



1
 SUMMARY VOLUMETRIC BUDGET FOR GSFLOW 
 DATE: 06 23 1991              CUMULATIVE TIME STEP:      23
 MODFLOW STRESS PERIOD     10     CURRENT TIME STEP:     266     ITERATIONS:       7

 -----------------------------------------------------------------------------------

   CUMULATIVE VOLUMES               L**3   RATES FOR THIS TIME STEP           L**3/T
   ------------------                      ------------------------

                                     IN                                         IN
                                     --                                         --
        PRECIPITATION =        1.4671D+07          PRECIPITATION =                  
           STREAMFLOW =                               STREAMFLOW =                  
     GW BOUNDARY FLOW =            169.63       GW BOUNDARY FLOW =              1.56


                                    OUT                                        OUT
                                    ---                                        ---
   EVAPOTRANSPIRATION =        8517707.35     EVAPOTRANSPIRATION =          38764.29
           STREAMFLOW =        6921563.45             STREAMFLOW =          12045.19
     GW BOUNDARY FLOW =           9418.92       GW BOUNDARY FLOW =             32.91

   INFLOWS - OUTFLOWS =        -777545.28     INFLOWS - OUTFLOWS =         -50840.83
             --------                                   --------

 TOTAL STORAGE CHANGE =        -845725.16         STORAGE CHANGE =         -50557.87
       --------------                             --------------
         LAND SURFACE =             16.57           LAND SURFACE =             -3.65
            SOIL ZONE =        1826685.66              SOIL ZONE =         -31390.08
     UNSATURATED ZONE =       -3079726.84       UNSATURATED ZONE =         -12800.46
       SATURATED ZONE =         407292.89         SATURATED ZONE =          -6363.75

 OVERALL BUDGET ERROR =          68179.87           BUDGET ERROR =           -282.96


  PERCENT DISCREPANCY =              0.44    PERCENT DISCREPANCY =             -0.56



1
 SUMMARY VOLUMETRIC BUDGET FOR GSFLOW 
 DATE: 06 30 1991              CUMULATIVE TIME STEP:      30
 MODFLOW STRESS PERIOD     10     CURRENT TIME STEP:     273     ITERATIONS:       7

 -----------------------------------------------------------------------------------

   CUMULATIVE VOLUMES               L**3   RATES FOR THIS TIME STEP           L**3/T
   ------------------                      ------------------------

                                     IN                                         IN
[...]
     GW BOUNDARY FLOW =          50950.41       GW BOUNDARY FLOW =             24.10

   INFLOWS - OUTFLOWS =       -1.1446D+07     INFLOWS - OUTFLOWS =         -80461.74
             --------                                   --------

 TOTAL STORAGE CHANGE =       -1.1870D+07         STORAGE CHANGE =         -80324.30
       --------------                             --------------
         LAND SURFACE =         179293.22           LAND SURFACE =         -11102.33
            SOIL ZONE =        1380712.02              SOIL ZONE =         -50396.11
     UNSATURATED ZONE =           5300.07       UNSATURATED ZONE =         -11787.99
       SATURATED ZONE =       -1.3436D+07         SATURATED ZONE =          -7038.40

 OVERALL BUDGET ERROR =         424168.73           BUDGET ERROR =           -137.44


  PERCENT DISCREPANCY =              0.29    PERCENT DISCREPANCY =             -0.17



1
 SUMMARY VOLUMETRIC BUDGET FOR GSFLOW 
 DATE: 09 03 1995              CUMULATIVE TIME STEP:       3
 MODFLOW STRESS PERIOD     61     CURRENT TIME STEP:    1799     ITERATIONS:       7

 -----------------------------------------------------------------------------------

   CUMULATIVE VOLUMES               L**3   RATES FOR THIS TIME STEP           L**3/T
   ------------------                      ------------------------

                                     IN                                         IN
                                     --                                         --
        PRECIPITATION =        1.3351D+08          PRECIPITATION =                  
           STREAMFLOW =                               STREAMFLOW =                  
     GW BOUNDARY FLOW =           5626.11       GW BOUNDARY FLOW =              3.53


                                    OUT                                        OUT
                                    ---                                        ---
   EVAPOTRANSPIRATION =        7.3381D+07     EVAPOTRANSPIRATION =          63188.75
           STREAMFLOW =        7.2056D+07             STREAMFLOW =           6617.59
     GW BOUNDARY FLOW =          51118.68       GW BOUNDARY FLOW =             24.00

   INFLOWS - OUTFLOWS =       -1.1974D+07     INFLOWS - OUTFLOWS =         -69826.81
             --------                                   --------

 TOTAL STORAGE CHANGE =       -1.2398D+07         STORAGE CHANGE =         -69795.60
       --------------                             --------------
         LAND SURFACE =         114525.52           LAND SURFACE =          -7766.54
            SOIL ZONE =        1049012.06              SOIL ZONE =         -43569.71
     UNSATURATED ZONE =         -71889.92       UNSATURATED ZONE =         -10577.16
       SATURATED ZONE =       -1.3490D+07         SATURATED ZONE =          -7882.73

 OVERALL BUDGET ERROR =         423528.99           BUDGET ERROR =            -31.21


  PERCENT DISCREPANCY =              0.29    PERCENT DISCREPANCY =             -0.04



1
 SUMMARY VOLUMETRIC BUDGET FOR GSFLOW 
 DATE: 09 10 1995              CUMULATIVE TIME STEP:      10
 MODFLOW STRESS PERIOD     61     CURRENT TIME STEP:    1806     ITERATIONS:       7

 -----------------------------------------------------------------------------------

   CUMULATIVE VOLUMES               L**3   RATES FOR THIS TIME STEP           L**3/T
   ------------------                      ------------------------

                                     IN                                         IN
                                     --                                         --
        PRECIPITATION =        1.3351D+08          PRECIPITATION =                  
           STREAMFLOW =                               STREAMFLOW =                  
     GW BOUNDARY FLOW =           5651.18       GW BOUNDARY FLOW =              3.62


                                    OUT                                        OUT
                                    ---                                        ---
   EVAPOTRANSPIRATION =        7.3734D+07     EVAPOTRANSPIRATION =          47289.61
           STREAMFLOW =        7.2104D+07             STREAMFLOW =           6662.30
     GW BOUNDARY FLOW =          51286.82       GW BOUNDARY FLOW =             24.01

   INFLOWS - OUTFLOWS =       -1.2376D+07     INFLOWS - OUTFLOWS =         -53972.30
             --------                                   --------

 TOTAL STORAGE CHANGE =       -1.2799D+07         STORAGE CHANGE =         -53948.76
       --------------                             --------------
         LAND SURFACE =          75925.35           LAND SURFACE =          -4673.87
            SOIL ZONE =         809002.22              SOIL ZONE =         -31430.72
     UNSATURATED ZONE =        -143833.93       UNSATURATED ZONE =         -10346.28
       SATURATED ZONE =       -1.3541D+07         SATURATED ZONE =          -7498.43

 OVERALL BUDGET ERROR =         423383.45           BUDGET ERROR =            -23.54


  PERCENT DISCREPANCY =              0.29    PERCENT DISCREPANCY =             -0.04



1
 SUMMARY VOLUMETRIC BUDGET FOR GSFLOW 
 DATE: 09 17 1995              CUMULATIVE TIME STEP:      17
 MODFLOW STRESS PERIOD     61     CURRENT TIME STEP:    1813     ITERATIONS:       7

 -----------------------------------------------------------------------------------

   CUMULATIVE VOLUMES               L**3   RATES FOR THIS TIME STEP           L**3/T
   ------------------                      ------------------------

                                     IN                                         IN
                                     --                                         --
        PRECIPITATION =        1.3351D+08          PRECIPITATION =                  
           STREAMFLOW =                               STREAMFLOW =                  
     GW BOUNDARY FLOW =           5676.89       GW BOUNDARY FLOW =              3.71


                                    OUT                                        OUT
                                    ---                                        ---
   EVAPOTRANSPIRATION =        7.4116D+07     EVAPOTRANSPIRATION =          43130.43
           STREAMFLOW =        7.2144D+07             STREAMFLOW =           5843.55
     GW BOUNDARY FLOW =          51454.15       GW BOUNDARY FLOW =             23.93

   INFLOWS - OUTFLOWS =       -1.2796D+07     INFLOWS - OUTFLOWS =         -48994.20
             --------                                   --------

 TOTAL STORAGE CHANGE =       -1.3220D+07         STORAGE CHANGE =         -48971.34
       --------------                             --------------
         LAND SURFACE =          44186.54           LAND SURFACE =          -3043.17
            SOIL ZONE =         564792.96              SOIL ZONE =         -26440.54
     UNSATURATED ZONE =        -220307.96       UNSATURATED ZONE =         -10697.34
       SATURATED ZONE =       -1.3609D+07         SATURATED ZONE =          -8790.83

 OVERALL BUDGET ERROR =         423173.91           BUDGET ERROR =            -22.87


  PERCENT DISCREPANCY =              0.29    PERCENT DISCREPANCY =             -0.05



1
 SUMMARY VOLUMETRIC BUDGET FOR GSFLOW 
 DATE: 09 24 1995              CUMULATIVE TIME STEP:      24
 MODFLOW STRESS PERIOD     61     CURRENT TIME STEP:    1820     ITERATIONS:       6

 -----------------------------------------------------------------------------------

   CUMULATIVE VOLUMES               L**3   RATES FOR THIS TIME STEP           L**3/T
   ------------------                      ------------------------

                                     IN                                         IN
                                     --                                         --
        PRECIPITATION =        1.3351D+08          PRECIPITATION =                  
           STREAMFLOW =                               STREAMFLOW =                  
     GW BOUNDARY FLOW =           5703.20       GW BOUNDARY FLOW =              3.79


                                    OUT                                        OUT
                                    ---                                        ---
   EVAPOTRANSPIRATION =        7.4381D+07     EVAPOTRANSPIRATION =          27425.48
           STREAMFLOW =        7.2185D+07             STREAMFLOW =           6485.96
     GW BOUNDARY FLOW =          51621.62       GW BOUNDARY FLOW =             23.97

   INFLOWS - OUTFLOWS =       -1.3103D+07     INFLOWS - OUTFLOWS =         -33931.62
             --------                                   --------

 TOTAL STORAGE CHANGE =       -1.3526D+07         STORAGE CHANGE =         -33919.44
       --------------                             --------------
         LAND SURFACE =          28055.76           LAND SURFACE =          -1559.79
            SOIL ZONE =         409275.35              SOIL ZONE =         -15434.75
     UNSATURATED ZONE =        -292278.14       UNSATURATED ZONE =          -9206.82
       SATURATED ZONE =       -1.3672D+07         SATURATED ZONE =          -7718.61

 OVERALL BUDGET ERROR =         423026.49           BUDGET ERROR =            -12.18


  PERCENT DISCREPANCY =              0.29    PERCENT DISCREPANCY =             -0.04



1
 SUMMARY VOLUMETRIC BUDGET FOR GSFLOW 
 DATE: 10 01 1995              CUMULATIVE TIME STEP:       1
 MODFLOW STRESS PERIOD     62     CURRENT TIME STEP:    1827     ITERATIONS:       6

 -----------------------------------------------------------------------------------

   CUMULATIVE VOLUMES               L**3   RATES FOR THIS TIME STEP           L**3/T
   ------------------                      ------------------------

                                     IN                                         IN
                                     --                                         --
        PRECIPITATION =        1.3351D+08          PRECIPITATION =                  
           STREAMFLOW =                               STREAMFLOW =                  
     GW BOUNDARY FLOW =           5730.08       GW BOUNDARY FLOW =              3.87


                                    OUT                                        OUT
                                    ---                                        ---
   EVAPOTRANSPIRATION =        7.4496D+07     EVAPOTRANSPIRATION =          16755.99
           STREAMFLOW =        7.2237D+07             STREAMFLOW =           7472.34
     GW BOUNDARY FLOW =          51789.99       GW BOUNDARY FLOW =             24.06

   INFLOWS - OUTFLOWS =       -1.3271D+07     INFLOWS - OUTFLOWS =         -24248.52
             --------                                   --------

 TOTAL STORAGE CHANGE =       -1.3694D+07         STORAGE CHANGE =         -24243.13
       --------------                             --------------
         LAND SURFACE =          22241.70           LAND SURFACE =           -699.89
            SOIL ZONE =         346642.12              SOIL ZONE =          -9153.72
     UNSATURATED ZONE =        -349982.44       UNSATURATED ZONE =          -8089.26
       SATURATED ZONE =       -1.3714D+07         SATURATED ZONE =          -6300.80

 OVERALL BUDGET ERROR =         422980.61           BUDGET ERROR =             -5.38


  PERCENT DISCREPANCY =              0.29    PERCENT DISCREPANCY =             -0.02



1
 SUMMARY VOLUMETRIC BUDGET FOR GSFLOW 
 DATE: 10 08 1995              CUMULATIVE TIME STEP:       8
 MODFLOW STRESS PERIOD     62     CURRENT TIME STEP:    1834     ITERATIONS:       6

 -----------------------------------------------------------------------------------

   CUMULATIVE VOLUMES               L**3   RATES FOR THIS TIME STEP           L**3/T
   ------------------                      ------------------------

                                     IN                                         IN
                                     --                                         --
        PRECIPITATION =        1.3351D+08          PRECIPITATION =                  
           STREAMFLOW =                               STREAMFLOW =                  
     GW BOUNDARY FLOW =           5757.49       GW BOUNDARY FLOW =              3.95


                                    OUT                                        OUT
                                    ---                                        ---
   EVAPOTRANSPIRATION =        7.4619D+07     EVAPOTRANSPIRATION =          15486.33
           STREAMFLOW =        7.2288D+07             STREAMFLOW =           7385.47
     GW BOUNDARY FLOW =          51958.31       GW BOUNDARY FLOW =             24.06

   INFLOWS - OUTFLOWS =       -1.3445D+07     INFLOWS - OUTFLOWS =         -22891.92
             --------                                   --------

 TOTAL STORAGE CHANGE =       -1.3868D+07         STORAGE CHANGE =         -22885.87
       --------------                             --------------
         LAND SURFACE =          18179.46           LAND SURFACE =           -628.45
            SOIL ZONE =         279461.36              SOIL ZONE =          -8135.85
     UNSATURATED ZONE =        -404730.62       UNSATURATED ZONE =          -7461.15
       SATURATED ZONE =       -1.3762D+07         SATURATED ZONE =          -6660.96

 OVERALL BUDGET ERROR =         422923.24           BUDGET ERROR =             -6.05


  PERCENT DISCREPANCY =              0.29    PERCENT DISCREPANCY =             -0.03



1
 SUMMARY VOLUMETRIC BUDGET FOR GSFLOW 
 DATE: 10 15 1995              CUMULATIVE TIME STEP:      15
 MODFLOW STRESS PERIOD     62     CURRENT TIME STEP:    1841     ITERATIONS:       5

 -----------------------------------------------------------------------------------

   CUMULATIVE VOLUMES               L**3   RATES FOR THIS TIME STEP           L**3/T
   ------------------                      ------------------------

                                     IN                                         IN
                                     --                                         --
        PRECIPITATION =        1.3351D+08          PRECIPITATION =                  
           STREAMFLOW =                               STREAMFLOW =                  
     GW BOUNDARY FLOW =           5785.41       GW BOUNDARY FLOW =              4.02


                                    OUT                                        OUT
                                    ---                                        ---
   EVAPOTRANSPIRATION =        7.4735D+07     EVAPOTRANSPIRATION =          18076.13
           STREAMFLOW =        7.2338D+07             STREAMFLOW =           6972.95
     GW BOUNDARY FLOW =          52126.60       GW BOUNDARY FLOW =             24.03

   INFLOWS - OUTFLOWS =       -1.3612D+07     INFLOWS - OUTFLOWS =         -25069.09
             --------                                   --------

 TOTAL STORAGE CHANGE =       -1.4034D+07         STORAGE CHANGE =         -25060.69
       --------------                             --------------
         LAND SURFACE =          14037.99           LAND SURFACE =           -696.58
            SOIL ZONE =         218923.84              SOIL ZONE =          -9198.64
     UNSATURATED ZONE =        -454567.46       UNSATURATED ZONE =          -6969.26
       SATURATED ZONE =       -1.3813D+07         SATURATED ZONE =          -8196.75

 OVERALL BUDGET ERROR =         422858.27           BUDGET ERROR =             -8.39


  PERCENT DISCREPANCY =              0.29    PERCENT DISCREPANCY =             -0.03



1
 SUMMARY VOLUMETRIC BUDGET FOR GSFLOW 
 DATE: 10 22 1995              CUMULATIVE TIME STEP:      22
 MODFLOW STRESS PERIOD     62     CURRENT TIME STEP:    1848     ITERATIONS:       7

 -----------------------------------------------------------------------------------

   CUMULATIVE VOLUMES               L**3   RATES FOR THIS TIME STEP           L**3/T
   ------------------                      ------------------------

                                     IN                                         IN
                                     --                                         --
        PRECIPITATION =        1.3351D+08          PRECIPITATION =                  
           STREAMFLOW =                               STREAMFLOW =                  
     GW BOUNDARY FLOW =           5813.78       GW BOUNDARY FLOW =              4.08


                                    OUT                                        OUT
                                    ---                                        ---
   EVAPOTRANSPIRATION =        7.4839D+07     EVAPOTRANSPIRATION =           4702.42
           STREAMFLOW =        7.2389D+07             STREAMFLOW =           8138.57
     GW BOUNDARY FLOW =          52294.93       GW BOUNDARY FLOW =             24.14

   INFLOWS - OUTFLOWS =       -1.3766D+07     INFLOWS - OUTFLOWS =         -12861.04
             --------                                   --------

 TOTAL STORAGE CHANGE =       -1.4188D+07         STORAGE CHANGE =         -12861.79
       --------------                             --------------
         LAND SURFACE =          10452.80           LAND SURFACE =             -6.45
            SOIL ZONE =         168057.14              SOIL ZONE =          -2048.73
     UNSATURATED ZONE =        -501162.81       UNSATURATED ZONE =          -6179.78
       SATURATED ZONE =       -1.3866D+07         SATURATED ZONE =          -4627.38

 OVERALL BUDGET ERROR =         422805.26           BUDGET ERROR =              0.75


  PERCENT DISCREPANCY =              0.29    PERCENT DISCREPANCY =              0.01



1
 SUMMARY VOLUMETRIC BUDGET FOR GSFLOW 
 DATE: 10 29 1995              CUMULATIVE TIME STEP:      29
 MODFLOW STRESS PERIOD     62     CURRENT TIME STEP:    1855     ITERATIONS:      14

 -----------------------------------------------------------------------------------

   CUMULATIVE VOLUMES               L**3   RATES FOR THIS TIME STEP           L**3/T
   ------------------                      ------------------------

                                     IN                                         IN
                                     --                                         --
        PRECIPITATION =        1.3351D+08          PRECIPITATION =                  
           STREAMFLOW =                               STREAMFLOW =                  
     GW BOUNDARY FLOW =           5842.57       GW BOUNDARY FLOW =              4.14


                                    OUT                                        OUT
                                    ---                                        ---
   EVAPOTRANSPIRATION =        7.4904D+07     EVAPOTRANSPIRATION =          11330.04
           STREAMFLOW =        7.2443D+07             STREAMFLOW =           7482.43
     GW BOUNDARY FLOW =          52463.67       GW BOUNDARY FLOW =             24.09

   INFLOWS - OUTFLOWS =       -1.3886D+07     INFLOWS - OUTFLOWS =         -18832.41
             --------                                   --------

 TOTAL STORAGE CHANGE =       -1.4308D+07         STORAGE CHANGE =         -18826.00
       --------------                             --------------
         LAND SURFACE =           9254.99           LAND SURFACE =           -359.13
            SOIL ZONE =         138084.32              SOIL ZONE =          -5038.65
     UNSATURATED ZONE =        -545309.78       UNSATURATED ZONE =          -6227.31
       SATURATED ZONE =       -1.3911D+07         SATURATED ZONE =          -7201.45

 OVERALL BUDGET ERROR =         422778.76           BUDGET ERROR =             -6.42


  PERCENT DISCREPANCY =              0.29    PERCENT DISCREPANCY =             -0.03



 Number of time steps:   1857;  Number of non-convergence:   0
 MF iterations:         11629;  SZ iterations:           11589
 Average MF iterations:  6.26;  Average SZ iterations:    6.24
 Maximum MF iterations:    72;  Maximum SZ iterations:      50

mxsziter reached: 3

