1
 SUMMARY VOLUMETRIC BUDGET FOR GSFLOW 
 DATE: 10 07 1990              CUMULATIVE TIME STEP:       7
 MODFLOW STRESS PERIOD      2     CURRENT TIME STEP:       7     ITERATIONS:       7

 -----------------------------------------------------------------------------------

   CUMULATIVE VOLUMES               L**3   RATES FOR THIS TIME STEP           L**3/T
   ------------------                      ------------------------

                                     IN                                         IN
                                     --                                         --
        PRECIPITATION =                            PRECIPITATION =                  
           STREAMFLOW =                               STREAMFLOW =                  
     GW BOUNDARY FLOW =                         GW BOUNDARY FLOW =                  


                                    OUT                                        OUT
                                    ---                                        ---
   EVAPOTRANSPIRATION =         385031.63     EVAPOTRANSPIRATION =          11801.34
           STREAMFLOW =          45661.61             STREAMFLOW =           8128.74
     GW BOUNDARY FLOW =            252.78       GW BOUNDARY FLOW =             36.30

   INFLOWS - OUTFLOWS =        -430946.01     INFLOWS - OUTFLOWS =         -19966.38
             --------                                   --------

 TOTAL STORAGE CHANGE =        -429355.10         STORAGE CHANGE =         -19938.35
       --------------                             --------------
         LAND SURFACE =                             LAND SURFACE =                  
            SOIL ZONE =         -33384.03              SOIL ZONE =           -943.80
     UNSATURATED ZONE =        -502794.45       UNSATURATED ZONE =         -33592.86
       SATURATED ZONE =         106823.38         SATURATED ZONE =          14598.31

 OVERALL BUDGET ERROR =          -1590.91           BUDGET ERROR =            -28.04


  PERCENT DISCREPANCY =             -0.37    PERCENT DISCREPANCY =             -0.14



1
 SUMMARY VOLUMETRIC BUDGET FOR GSFLOW 
 DATE: 10 14 1990              CUMULATIVE TIME STEP:      14
 MODFLOW STRESS PERIOD      2     CURRENT TIME STEP:      14     ITERATIONS:       6

 -----------------------------------------------------------------------------------

   CUMULATIVE VOLUMES               L**3   RATES FOR THIS TIME STEP           L**3/T
   ------------------                      ------------------------

                                     IN                                         IN
                                     --                                         --
        PRECIPITATION =                            PRECIPITATION =                  
           STREAMFLOW =                               STREAMFLOW =                  
     GW BOUNDARY FLOW =                         GW BOUNDARY FLOW =                  


                                    OUT                                        OUT
                                    ---                                        ---
   EVAPOTRANSPIRATION =         665235.67     EVAPOTRANSPIRATION =          42298.13
           STREAMFLOW =         100376.39             STREAMFLOW =           7413.80
     GW BOUNDARY FLOW =            506.61       GW BOUNDARY FLOW =             36.24

   INFLOWS - OUTFLOWS =        -766118.68     INFLOWS - OUTFLOWS =         -49748.17
             --------                                   --------

 TOTAL STORAGE CHANGE =        -764154.83         STORAGE CHANGE =         -49710.99
       --------------                             --------------
         LAND SURFACE =                             LAND SURFACE =                  
            SOIL ZONE =         -58194.84              SOIL ZONE =          -4382.18
     UNSATURATED ZONE =        -877795.92       UNSATURATED ZONE =         -52080.87
       SATURATED ZONE =         171835.92         SATURATED ZONE =           6752.05

 OVERALL BUDGET ERROR =          -1963.85           BUDGET ERROR =            -37.18


  PERCENT DISCREPANCY =             -0.26    PERCENT DISCREPANCY =             -0.07



1
 SUMMARY VOLUMETRIC BUDGET FOR GSFLOW 
 DATE: 10 21 1990              CUMULATIVE TIME STEP:      21
 MODFLOW STRESS PERIOD      2     CURRENT TIME STEP:      21     ITERATIONS:       6

 -----------------------------------------------------------------------------------

   CUMULATIVE VOLUMES               L**3   RATES FOR THIS TIME STEP           L**3/T
   ------------------                      ------------------------

                                     IN                                         IN
                                     --                                         --
        PRECIPITATION =         188432.87          PRECIPITATION =                  
           STREAMFLOW =                               STREAMFLOW =                  
     GW BOUNDARY FLOW =                         GW BOUNDARY FLOW =                  


                                    OUT                                        OUT
                                    ---                                        ---
   EVAPOTRANSPIRATION =         815489.22     EVAPOTRANSPIRATION =          41709.13
           STREAMFLOW =         163153.13             STREAMFLOW =          10150.80
     GW BOUNDARY FLOW =            760.80       GW BOUNDARY FLOW =             36.37

   INFLOWS - OUTFLOWS =        -790970.28     INFLOWS - OUTFLOWS =         -51896.30
             --------                                   --------

 TOTAL STORAGE CHANGE =        -790168.75         STORAGE CHANGE =         -51906.06
       --------------                             --------------
         LAND SURFACE =          18885.57           LAND SURFACE =         -43558.49
            SOIL ZONE =          47345.98              SOIL ZONE =           2011.86
     UNSATURATED ZONE =       -1091550.94       UNSATURATED ZONE =         -21331.09
       SATURATED ZONE =         235150.64         SATURATED ZONE =          10971.67

 OVERALL BUDGET ERROR =           -801.53           BUDGET ERROR =              9.75


  PERCENT DISCREPANCY =             -0.08    PERCENT DISCREPANCY =              0.02



1
 SUMMARY VOLUMETRIC BUDGET FOR GSFLOW 
 DATE: 10 28 1990              CUMULATIVE TIME STEP:      28
 MODFLOW STRESS PERIOD      2     CURRENT TIME STEP:      28     ITERATIONS:       6

 -----------------------------------------------------------------------------------

   CUMULATIVE VOLUMES               L**3   RATES FOR THIS TIME STEP           L**3/T
   ------------------                      ------------------------

                                     IN                                         IN
                                     --                                         --
        PRECIPITATION =         188432.87          PRECIPITATION =                  
           STREAMFLOW =                               STREAMFLOW =                  
     GW BOUNDARY FLOW =                         GW BOUNDARY FLOW =                  


                                    OUT                                        OUT
                                    ---                                        ---
   EVAPOTRANSPIRATION =         943862.34     EVAPOTRANSPIRATION =          11829.69
           STREAMFLOW =         224595.93             STREAMFLOW =           8923.04
     GW BOUNDARY FLOW =           1013.98       GW BOUNDARY FLOW =             36.12

   INFLOWS - OUTFLOWS =        -981039.39     INFLOWS - OUTFLOWS =         -20788.86
             --------                                   --------

 TOTAL STORAGE CHANGE =        -980181.25         STORAGE CHANGE =         -20779.34
       --------------                             --------------
         LAND SURFACE =                             LAND SURFACE =                  
            SOIL ZONE =          18290.21              SOIL ZONE =          -3431.63
     UNSATURATED ZONE =       -1274919.38       UNSATURATED ZONE =         -23234.10
       SATURATED ZONE =         276447.92         SATURATED ZONE =           5886.40

 OVERALL BUDGET ERROR =           -858.14           BUDGET ERROR =             -9.52


  PERCENT DISCREPANCY =             -0.07    PERCENT DISCREPANCY =             -0.05



1
 SUMMARY VOLUMETRIC BUDGET FOR GSFLOW 
 DATE: 11 04 1990              CUMULATIVE TIME STEP:       4
 MODFLOW STRESS PERIOD      3     CURRENT TIME STEP:      35     ITERATIONS:       6

 -----------------------------------------------------------------------------------

   CUMULATIVE VOLUMES               L**3   RATES FOR THIS TIME STEP           L**3/T
   ------------------                      ------------------------

                                     IN                                         IN
                                     --                                         --
        PRECIPITATION =         703113.06          PRECIPITATION =                  
           STREAMFLOW =                               STREAMFLOW =                  
     GW BOUNDARY FLOW =                         GW BOUNDARY FLOW =                  


                                    OUT                                        OUT
                                    ---                                        ---
   EVAPOTRANSPIRATION =        1004442.14     EVAPOTRANSPIRATION =          26278.40
           STREAMFLOW =         295189.64             STREAMFLOW =          10648.68
     GW BOUNDARY FLOW =           1267.03       GW BOUNDARY FLOW =             36.14

   INFLOWS - OUTFLOWS =        -597785.75     INFLOWS - OUTFLOWS =         -36963.22
             --------                                   --------

 TOTAL STORAGE CHANGE =        -601935.18         STORAGE CHANGE =         -38210.98
       --------------                             --------------
         LAND SURFACE =         132159.65           LAND SURFACE =        -160480.33
            SOIL ZONE =         350084.83              SOIL ZONE =         132916.62
     UNSATURATED ZONE =       -1420412.79       UNSATURATED ZONE =         -20041.19
       SATURATED ZONE =         336233.12         SATURATED ZONE =           9393.92

 OVERALL BUDGET ERROR =           4149.43           BUDGET ERROR =           1247.76

  ***WARNING, FLUX RATES OFF > 3%

  PERCENT DISCREPANCY =              0.32    PERCENT DISCREPANCY =              3.32



1
 SUMMARY VOLUMETRIC BUDGET FOR GSFLOW 
 DATE: 11 11 1990              CUMULATIVE TIME STEP:      11
 MODFLOW STRESS PERIOD      3     CURRENT TIME STEP:      42     ITERATIONS:       6

 -----------------------------------------------------------------------------------

   CUMULATIVE VOLUMES               L**3   RATES FOR THIS TIME STEP           L**3/T
   ------------------                      ------------------------

                                     IN                                         IN
                                     --                                         --
        PRECIPITATION =         703113.06          PRECIPITATION =                  
           STREAMFLOW =                               STREAMFLOW =                  
     GW BOUNDARY FLOW =                         GW BOUNDARY FLOW =                  


                                    OUT                                        OUT
                                    ---                                        ---
   EVAPOTRANSPIRATION =        1081546.12     EVAPOTRANSPIRATION =          12121.99
           STREAMFLOW =         366251.37             STREAMFLOW =           9644.48
     GW BOUNDARY FLOW =           1519.13       GW BOUNDARY FLOW =             35.92

   INFLOWS - OUTFLOWS =        -746203.56     INFLOWS - OUTFLOWS =         -21802.39
             --------                                   --------

 TOTAL STORAGE CHANGE =        -750536.17         STORAGE CHANGE =         -21801.47
       --------------                             --------------
         LAND SURFACE =            595.09           LAND SURFACE =          -1416.54
            SOIL ZONE =         422360.48              SOIL ZONE =          -5417.64
     UNSATURATED ZONE =       -1559469.33       UNSATURATED ZONE =         -19843.97
       SATURATED ZONE =         385977.56         SATURATED ZONE =           4876.68

 OVERALL BUDGET ERROR =           4332.61           BUDGET ERROR =             -0.92


  PERCENT DISCREPANCY =              0.30    PERCENT DISCREPANCY =             -0.00



1
 SUMMARY VOLUMETRIC BUDGET FOR GSFLOW 
 DATE: 11 18 1990              CUMULATIVE TIME STEP:      18
 MODFLOW STRESS PERIOD      3     CURRENT TIME STEP:      49     ITERATIONS:       6

 -----------------------------------------------------------------------------------

   CUMULATIVE VOLUMES               L**3   RATES FOR THIS TIME STEP           L**3/T
   ------------------                      ------------------------

                                     IN                                         IN
                                     --                                         --
        PRECIPITATION =         747883.35          PRECIPITATION =                  
           STREAMFLOW =                               STREAMFLOW =                  
     GW BOUNDARY FLOW =                         GW BOUNDARY FLOW =                  


                                    OUT                                        OUT
                                    ---                                        ---
   EVAPOTRANSPIRATION =        1153929.44     EVAPOTRANSPIRATION =           5051.87
           STREAMFLOW =         437972.31             STREAMFLOW =          10677.90
     GW BOUNDARY FLOW =           1770.44       GW BOUNDARY FLOW =             35.88

   INFLOWS - OUTFLOWS =        -845788.84     INFLOWS - OUTFLOWS =         -15765.66
             --------                                   --------

 TOTAL STORAGE CHANGE =        -850158.22         STORAGE CHANGE =         -15776.70
       --------------                             --------------
         LAND SURFACE =           7868.08           LAND SURFACE =          -3691.47
            SOIL ZONE =         404436.69              SOIL ZONE =           -745.15
     UNSATURATED ZONE =       -1692609.33       UNSATURATED ZONE =         -18606.79
       SATURATED ZONE =         430146.29         SATURATED ZONE =           7266.70

 OVERALL BUDGET ERROR =           4369.38           BUDGET ERROR =             11.04


  PERCENT DISCREPANCY =              0.27    PERCENT DISCREPANCY =              0.07



1
 SUMMARY VOLUMETRIC BUDGET FOR GSFLOW 
 DATE: 11 25 1990              CUMULATIVE TIME STEP:      25
 MODFLOW STRESS PERIOD      3     CURRENT TIME STEP:      56     ITERATIONS:       6

 -----------------------------------------------------------------------------------

   CUMULATIVE VOLUMES               L**3   RATES FOR THIS TIME STEP           L**3/T
   ------------------                      ------------------------

                                     IN                                         IN
                                     --                                         --
        PRECIPITATION =        1009043.38          PRECIPITATION =         186542.88
           STREAMFLOW =                               STREAMFLOW =                  
     GW BOUNDARY FLOW =                         GW BOUNDARY FLOW =                  


                                    OUT                                        OUT
                                    ---                                        ---
   EVAPOTRANSPIRATION =        1214350.80     EVAPOTRANSPIRATION =           3755.14
           STREAMFLOW =         514005.05             STREAMFLOW =          10879.22
     GW BOUNDARY FLOW =           2021.39       GW BOUNDARY FLOW =             35.79

   INFLOWS - OUTFLOWS =        -721333.85     INFLOWS - OUTFLOWS =         171872.72
             --------                                   --------

 TOTAL STORAGE CHANGE =        -727845.79         STORAGE CHANGE =         170021.67
       --------------                             --------------
         LAND SURFACE =          86180.68           LAND SURFACE =          69567.13
            SOIL ZONE =         526547.21              SOIL ZONE =         112089.43
     UNSATURATED ZONE =       -1820191.09       UNSATURATED ZONE =         -17909.57
       SATURATED ZONE =         479617.34         SATURATED ZONE =           6274.68

 OVERALL BUDGET ERROR =           6511.94           BUDGET ERROR =           1851.05


  PERCENT DISCREPANCY =              0.38    PERCENT DISCREPANCY =              1.00



1
 SUMMARY VOLUMETRIC BUDGET FOR GSFLOW 
 DATE: 12 02 1990              CUMULATIVE TIME STEP:       2
 MODFLOW STRESS PERIOD      4     CURRENT TIME STEP:      63     ITERATIONS:       6

 -----------------------------------------------------------------------------------

   CUMULATIVE VOLUMES               L**3   RATES FOR THIS TIME STEP           L**3/T
   ------------------                      ------------------------

                                     IN                                         IN
                                     --                                         --
        PRECIPITATION =        1449284.55          PRECIPITATION =                  
           STREAMFLOW =                               STREAMFLOW =                  
     GW BOUNDARY FLOW =                         GW BOUNDARY FLOW =                  


                                    OUT                                        OUT
                                    ---                                        ---
   EVAPOTRANSPIRATION =        1220846.46     EVAPOTRANSPIRATION =            234.69
           STREAMFLOW =         591254.14             STREAMFLOW =          11080.72
     GW BOUNDARY FLOW =           2271.88       GW BOUNDARY FLOW =             35.77

   INFLOWS - OUTFLOWS =        -365087.92     INFLOWS - OUTFLOWS =         -11351.17
             --------                                   --------

 TOTAL STORAGE CHANGE =        -372718.14         STORAGE CHANGE =         -11363.94
       --------------                             --------------
         LAND SURFACE =         486845.62           LAND SURFACE =           -339.04
            SOIL ZONE =         558818.71              SOIL ZONE =            143.95
     UNSATURATED ZONE =       -1943042.63       UNSATURATED ZONE =         -17256.32
       SATURATED ZONE =         524660.08         SATURATED ZONE =           6087.47

 OVERALL BUDGET ERROR =           7630.22           BUDGET ERROR =             12.77


  PERCENT DISCREPANCY =              0.42    PERCENT DISCREPANCY =              0.11



1
 SUMMARY VOLUMETRIC BUDGET FOR GSFLOW 
 DATE: 12 09 1990              CUMULATIVE TIME STEP:       9
 MODFLOW STRESS PERIOD      4     CURRENT TIME STEP:      70     ITERATIONS:       6

 -----------------------------------------------------------------------------------

   CUMULATIVE VOLUMES               L**3   RATES FOR THIS TIME STEP           L**3/T
   ------------------                      ------------------------

                                     IN                                         IN
                                     --                                         --
        PRECIPITATION =        1449284.55          PRECIPITATION =                  
           STREAMFLOW =                               STREAMFLOW =                  
     GW BOUNDARY FLOW =                         GW BOUNDARY FLOW =                  


                                    OUT                                        OUT
                                    ---                                        ---
   EVAPOTRANSPIRATION =        1296655.03     EVAPOTRANSPIRATION =          13836.66
           STREAMFLOW =         669042.38             STREAMFLOW =          10922.37
     GW BOUNDARY FLOW =           2521.84       GW BOUNDARY FLOW =             35.65

   INFLOWS - OUTFLOWS =        -518934.70     INFLOWS - OUTFLOWS =         -24794.68
             --------                                   --------

 TOTAL STORAGE CHANGE =        -531015.07         STORAGE CHANGE =         -24916.65
       --------------                             --------------
         LAND SURFACE =          67215.40           LAND SURFACE =         -45889.70
            SOIL ZONE =         901364.62              SOIL ZONE =          33527.42
     UNSATURATED ZONE =       -2060848.52       UNSATURATED ZONE =         -16486.73
       SATURATED ZONE =         561253.32         SATURATED ZONE =           3932.35

 OVERALL BUDGET ERROR =          12080.37           BUDGET ERROR =            121.98


  PERCENT DISCREPANCY =              0.61    PERCENT DISCREPANCY =              0.49



1
 SUMMARY VOLUMETRIC BUDGET FOR GSFLOW 
 DATE: 12 16 1990              CUMULATIVE TIME STEP:      16
 MODFLOW STRESS PERIOD      4     CURRENT TIME STEP:      77     ITERATIONS:       5

 -----------------------------------------------------------------------------------

   CUMULATIVE VOLUMES               L**3   RATES FOR THIS TIME STEP           L**3/T
   ------------------                      ------------------------

                                     IN                                         IN
                                     --                                         --
        PRECIPITATION =        1804962.84          PRECIPITATION =                  
           STREAMFLOW =                               STREAMFLOW =                  
     GW BOUNDARY FLOW =                         GW BOUNDARY FLOW =                  


                                    OUT                                        OUT
                                    ---                                        ---
   EVAPOTRANSPIRATION =        1324912.99     EVAPOTRANSPIRATION =                  
           STREAMFLOW =         748759.58             STREAMFLOW =          11518.27
     GW BOUNDARY FLOW =           2771.25       GW BOUNDARY FLOW =             35.61

   INFLOWS - OUTFLOWS =        -271480.97     INFLOWS - OUTFLOWS =         -11553.88
             --------                                   --------

 TOTAL STORAGE CHANGE =        -285857.89         STORAGE CHANGE =         -11569.29
       --------------                             --------------
         LAND SURFACE =         252566.26           LAND SURFACE =                  
            SOIL ZONE =        1043796.07              SOIL ZONE =            -29.64
     UNSATURATED ZONE =       -2174188.33       UNSATURATED ZONE =         -15930.71
       SATURATED ZONE =         591967.95         SATURATED ZONE =           4391.07

 OVERALL BUDGET ERROR =          14376.92           BUDGET ERROR =             15.41


  PERCENT DISCREPANCY =              0.69    PERCENT DISCREPANCY =              0.13



1
 SUMMARY VOLUMETRIC BUDGET FOR GSFLOW 
 DATE: 12 23 1990              CUMULATIVE TIME STEP:      23
 MODFLOW STRESS PERIOD      4     CURRENT TIME STEP:      84     ITERATIONS:       6

 -----------------------------------------------------------------------------------

   CUMULATIVE VOLUMES               L**3   RATES FOR THIS TIME STEP           L**3/T
   ------------------                      ------------------------

                                     IN                                         IN
                                     --                                         --
        PRECIPITATION =        2276236.55          PRECIPITATION =                  
           STREAMFLOW =                               STREAMFLOW =                  
     GW BOUNDARY FLOW =              0.08       GW BOUNDARY FLOW =              0.04


                                    OUT                                        OUT
                                    ---                                        ---
   EVAPOTRANSPIRATION =        1325970.58     EVAPOTRANSPIRATION =                  
           STREAMFLOW =         829587.87             STREAMFLOW =          11567.04
     GW BOUNDARY FLOW =           3020.28       GW BOUNDARY FLOW =             35.57

   INFLOWS - OUTFLOWS =         117657.90     INFLOWS - OUTFLOWS =         -11602.57
             --------                                   --------

 TOTAL STORAGE CHANGE =         103187.92         STORAGE CHANGE =         -11614.61
       --------------                             --------------
         LAND SURFACE =         722784.33           LAND SURFACE =                  
            SOIL ZONE =        1043934.11              SOIL ZONE =             49.27
     UNSATURATED ZONE =       -2283396.36       UNSATURATED ZONE =         -15356.15
       SATURATED ZONE =         619865.65         SATURATED ZONE =           3692.27

 OVERALL BUDGET ERROR =          14469.97           BUDGET ERROR =             12.04


  PERCENT DISCREPANCY =              0.64    PERCENT DISCREPANCY =              0.10



1
 SUMMARY VOLUMETRIC BUDGET FOR GSFLOW 
 DATE: 12 30 1990              CUMULATIVE TIME STEP:      30
 MODFLOW STRESS PERIOD      4     CURRENT TIME STEP:      91     ITERATIONS:       5

 -----------------------------------------------------------------------------------

   CUMULATIVE VOLUMES               L**3   RATES FOR THIS TIME STEP           L**3/T
   ------------------                      ------------------------

                                     IN                                         IN
                                     --                                         --
        PRECIPITATION =        2276236.55          PRECIPITATION =                  
           STREAMFLOW =                               STREAMFLOW =                  
     GW BOUNDARY FLOW =              0.77       GW BOUNDARY FLOW =              0.14


                                    OUT                                        OUT
                                    ---                                        ---
   EVAPOTRANSPIRATION =        1326538.09     EVAPOTRANSPIRATION =                  
           STREAMFLOW =         910829.62             STREAMFLOW =          11638.06
     GW BOUNDARY FLOW =           3269.39       GW BOUNDARY FLOW =             35.60

   INFLOWS - OUTFLOWS =          35600.22     INFLOWS - OUTFLOWS =         -11673.52
             --------                                   --------

 TOTAL STORAGE CHANGE =          21053.19         STORAGE CHANGE =         -11683.56
       --------------                             --------------
         LAND SURFACE =         722216.94           LAND SURFACE =                  
            SOIL ZONE =        1044479.09              SOIL ZONE =             96.86
     UNSATURATED ZONE =       -2388689.54       UNSATURATED ZONE =         -14807.71
       SATURATED ZONE =         643046.47         SATURATED ZONE =           3027.28

 OVERALL BUDGET ERROR =          14547.03           BUDGET ERROR =             10.05


  PERCENT DISCREPANCY =              0.64    PERCENT DISCREPANCY =              0.09



1
 SUMMARY VOLUMETRIC BUDGET FOR GSFLOW 
 DATE: 01 06 1991              CUMULATIVE TIME STEP:       6
 MODFLOW STRESS PERIOD      5     CURRENT TIME STEP:      98     ITERATIONS:       5

 -----------------------------------------------------------------------------------

   CUMULATIVE VOLUMES               L**3   RATES FOR THIS TIME STEP           L**3/T
   ------------------                      ------------------------

                                     IN                                         IN
                                     --                                         --
        PRECIPITATION =        2276236.55          PRECIPITATION =                  
           STREAMFLOW =                               STREAMFLOW =                  
     GW BOUNDARY FLOW =              2.09       GW BOUNDARY FLOW =              0.22


                                    OUT                                        OUT
                                    ---                                        ---
   EVAPOTRANSPIRATION =        1353539.06     EVAPOTRANSPIRATION =           3180.55
           STREAMFLOW =         992741.61             STREAMFLOW =          11742.21
     GW BOUNDARY FLOW =           3519.28       GW BOUNDARY FLOW =             35.75

   INFLOWS - OUTFLOWS =         -73561.31     INFLOWS - OUTFLOWS =         -14958.29
             --------                                   --------

 TOTAL STORAGE CHANGE =         -90671.12         STORAGE CHANGE =         -15094.50
       --------------                             --------------
         LAND SURFACE =         592099.75           LAND SURFACE =          -8106.31
            SOIL ZONE =        1145748.55              SOIL ZONE =           4884.08
     UNSATURATED ZONE =       -2490032.80       UNSATURATED ZONE =         -14245.44
       SATURATED ZONE =         661513.11         SATURATED ZONE =           2373.16

 OVERALL BUDGET ERROR =          17109.81           BUDGET ERROR =            136.20


  PERCENT DISCREPANCY =              0.73    PERCENT DISCREPANCY =              0.91



1
 SUMMARY VOLUMETRIC BUDGET FOR GSFLOW 
 DATE: 01 13 1991              CUMULATIVE TIME STEP:      13
 MODFLOW STRESS PERIOD      5     CURRENT TIME STEP:     105     ITERATIONS:       6

 -----------------------------------------------------------------------------------

   CUMULATIVE VOLUMES               L**3   RATES FOR THIS TIME STEP           L**3/T
   ------------------                      ------------------------

                                     IN                                         IN
                                     --                                         --
        PRECIPITATION =        2596386.94          PRECIPITATION =          10327.43
           STREAMFLOW =                               STREAMFLOW =                  
     GW BOUNDARY FLOW =              4.01       GW BOUNDARY FLOW =              0.31


                                    OUT                                        OUT
                                    ---                                        ---
   EVAPOTRANSPIRATION =        1420325.59     EVAPOTRANSPIRATION =          18625.51
           STREAMFLOW =        1075102.29             STREAMFLOW =          11744.67
     GW BOUNDARY FLOW =           3769.51       GW BOUNDARY FLOW =             35.73

   INFLOWS - OUTFLOWS =          97193.58     INFLOWS - OUTFLOWS =         -20078.17
             --------                                   --------

 TOTAL STORAGE CHANGE =          75101.11         STORAGE CHANGE =         -21301.87
       --------------                             --------------
         LAND SURFACE =         529885.03           LAND SURFACE =        -135264.70
            SOIL ZONE =        1458133.13              SOIL ZONE =         126529.52
     UNSATURATED ZONE =       -2587302.03       UNSATURATED ZONE =         -13691.30
       SATURATED ZONE =         674384.64         SATURATED ZONE =           1124.61

 OVERALL BUDGET ERROR =          22092.47           BUDGET ERROR =           1223.70

  ***WARNING, FLUX RATES OFF > 3%

  PERCENT DISCREPANCY =              0.85    PERCENT DISCREPANCY =              3.95



1
 SUMMARY VOLUMETRIC BUDGET FOR GSFLOW 
 DATE: 01 20 1991              CUMULATIVE TIME STEP:      20
 MODFLOW STRESS PERIOD      5     CURRENT TIME STEP:     112     ITERATIONS:       5

 -----------------------------------------------------------------------------------

   CUMULATIVE VOLUMES               L**3   RATES FOR THIS TIME STEP           L**3/T
   ------------------                      ------------------------

                                     IN                                         IN
                                     --                                         --
        PRECIPITATION =        2596386.94          PRECIPITATION =                  
           STREAMFLOW =                               STREAMFLOW =                  
     GW BOUNDARY FLOW =              6.54       GW BOUNDARY FLOW =              0.40


                                    OUT                                        OUT
                                    ---                                        ---
   EVAPOTRANSPIRATION =        1497418.33     EVAPOTRANSPIRATION =           2453.34
           STREAMFLOW =        1158287.15             STREAMFLOW =          11901.55
     GW BOUNDARY FLOW =           4019.73       GW BOUNDARY FLOW =             35.74

   INFLOWS - OUTFLOWS =         -63331.73     INFLOWS - OUTFLOWS =         -14390.24
             --------                                   --------

 TOTAL STORAGE CHANGE =         -86437.45         STORAGE CHANGE =         -14398.42
       --------------                             --------------
         LAND SURFACE =         356897.55           LAND SURFACE =           -433.81
            SOIL ZONE =        1553718.96              SOIL ZONE =          -1968.34
     UNSATURATED ZONE =       -2680700.94       UNSATURATED ZONE =         -13124.00
       SATURATED ZONE =         683646.60         SATURATED ZONE =           1127.72

 OVERALL BUDGET ERROR =          23105.72           BUDGET ERROR =              8.18


  PERCENT DISCREPANCY =              0.86    PERCENT DISCREPANCY =              0.06



1
 SUMMARY VOLUMETRIC BUDGET FOR GSFLOW 
 DATE: 01 27 1991              CUMULATIVE TIME STEP:      27
 MODFLOW STRESS PERIOD      5     CURRENT TIME STEP:     119     ITERATIONS:       5

 -----------------------------------------------------------------------------------

   CUMULATIVE VOLUMES               L**3   RATES FOR THIS TIME STEP           L**3/T
   ------------------                      ------------------------

                                     IN                                         IN
                                     --                                         --
        PRECIPITATION =        2596386.94          PRECIPITATION =                  
           STREAMFLOW =                               STREAMFLOW =                  
     GW BOUNDARY FLOW =              9.65       GW BOUNDARY FLOW =              0.48


                                    OUT                                        OUT
                                    ---                                        ---
   EVAPOTRANSPIRATION =        1523278.67     EVAPOTRANSPIRATION =           1702.43
           STREAMFLOW =        1241541.71             STREAMFLOW =          11919.17
     GW BOUNDARY FLOW =           4269.90       GW BOUNDARY FLOW =             35.74

   INFLOWS - OUTFLOWS =        -172693.69     INFLOWS - OUTFLOWS =         -13656.86
             --------                                   --------

 TOTAL STORAGE CHANGE =        -196054.53         STORAGE CHANGE =         -13669.66
       --------------                             --------------
         LAND SURFACE =         323033.01           LAND SURFACE =           -547.84
            SOIL ZONE =        1562416.39              SOIL ZONE =          -1062.80
     UNSATURATED ZONE =       -2770628.02       UNSATURATED ZONE =         -12628.91
       SATURATED ZONE =         689123.64         SATURATED ZONE =            569.88

 OVERALL BUDGET ERROR =          23360.85           BUDGET ERROR =             12.80


  PERCENT DISCREPANCY =              0.84    PERCENT DISCREPANCY =              0.09



1
 SUMMARY VOLUMETRIC BUDGET FOR GSFLOW 
 DATE: 02 03 1991              CUMULATIVE TIME STEP:       3
 MODFLOW STRESS PERIOD      6     CURRENT TIME STEP:     126     ITERATIONS:       6

 -----------------------------------------------------------------------------------

   CUMULATIVE VOLUMES               L**3   RATES FOR THIS TIME STEP           L**3/T
   ------------------                      ------------------------

                                     IN                                         IN
                                     --                                         --
        PRECIPITATION =        3228422.31          PRECIPITATION =          30459.53
           STREAMFLOW =                               STREAMFLOW =                  
     GW BOUNDARY FLOW =             13.31       GW BOUNDARY FLOW =              0.55


                                    OUT                                        OUT
                                    ---                                        ---
   EVAPOTRANSPIRATION =        1630246.17     EVAPOTRANSPIRATION =          21403.91
           STREAMFLOW =        1326372.86             STREAMFLOW =          12244.08
     GW BOUNDARY FLOW =           4519.99       GW BOUNDARY FLOW =             35.74

   INFLOWS - OUTFLOWS =         267296.58     INFLOWS - OUTFLOWS =          -3223.63
             --------                                   --------

 TOTAL STORAGE CHANGE =         237015.64         STORAGE CHANGE =          -3497.56
       --------------                             --------------
         LAND SURFACE =         157683.43           LAND SURFACE =         -26376.35
            SOIL ZONE =        2246327.25              SOIL ZONE =          35076.62
     UNSATURATED ZONE =       -2857235.03       UNSATURATED ZONE =         -12195.46
       SATURATED ZONE =         690239.48         SATURATED ZONE =             -2.38

 OVERALL BUDGET ERROR =          30280.94           BUDGET ERROR =            273.93


  PERCENT DISCREPANCY =              0.94    PERCENT DISCREPANCY =              0.81



1
 SUMMARY VOLUMETRIC BUDGET FOR GSFLOW 
 DATE: 02 10 1991              CUMULATIVE TIME STEP:      10
 MODFLOW STRESS PERIOD      6     CURRENT TIME STEP:     133     ITERATIONS:       5

 -----------------------------------------------------------------------------------

   CUMULATIVE VOLUMES               L**3   RATES FOR THIS TIME STEP           L**3/T
   ------------------                      ------------------------

                                     IN                                         IN
                                     --                                         --
        PRECIPITATION =        3510173.01          PRECIPITATION =                  
           STREAMFLOW =                               STREAMFLOW =                  
     GW BOUNDARY FLOW =             17.48       GW BOUNDARY FLOW =              0.63


                                    OUT                                        OUT
                                    ---                                        ---
   EVAPOTRANSPIRATION =        1797596.96     EVAPOTRANSPIRATION =          25636.12
           STREAMFLOW =        1412566.93             STREAMFLOW =          12170.04
     GW BOUNDARY FLOW =           4770.08       GW BOUNDARY FLOW =             35.72

   INFLOWS - OUTFLOWS =         295256.52     INFLOWS - OUTFLOWS =         -37841.25
             --------                                   --------

 TOTAL STORAGE CHANGE =         262055.22         STORAGE CHANGE =         -37795.68
       --------------                             --------------
         LAND SURFACE =          75877.11           LAND SURFACE =          -8469.89
            SOIL ZONE =        2438165.38              SOIL ZONE =         -17124.57
     UNSATURATED ZONE =       -2940403.65       UNSATURATED ZONE =         -11687.56
       SATURATED ZONE =         688415.79         SATURATED ZONE =           -513.68

 OVERALL BUDGET ERROR =          33201.30           BUDGET ERROR =            -45.57


  PERCENT DISCREPANCY =              0.95    PERCENT DISCREPANCY =             -0.12



1
 SUMMARY VOLUMETRIC BUDGET FOR GSFLOW 
 DATE: 02 17 1991              CUMULATIVE TIME STEP:      17
 MODFLOW STRESS PERIOD      6     CURRENT TIME STEP:     140     ITERATIONS:       5

 -----------------------------------------------------------------------------------

   CUMULATIVE VOLUMES               L**3   RATES FOR THIS TIME STEP           L**3/T
   ------------------                      ------------------------

                                     IN                                         IN
                                     --                                         --
        PRECIPITATION =        3510173.01          PRECIPITATION =                  
           STREAMFLOW =                               STREAMFLOW =                  
     GW BOUNDARY FLOW =             22.16       GW BOUNDARY FLOW =              0.70


                                    OUT                                        OUT
                                    ---                                        ---
   EVAPOTRANSPIRATION =        2040489.74     EVAPOTRANSPIRATION =          23705.65
           STREAMFLOW =        1497315.28             STREAMFLOW =          12103.22
     GW BOUNDARY FLOW =           5020.01       GW BOUNDARY FLOW =             35.68

   INFLOWS - OUTFLOWS =         -32629.87     INFLOWS - OUTFLOWS =         -35843.85
             --------                                   --------

 TOTAL STORAGE CHANGE =         -65213.82         STORAGE CHANGE =         -35767.90
       --------------                             --------------
         LAND SURFACE =          17890.99           LAND SURFACE =          -1143.67
            SOIL ZONE =        2254328.19              SOIL ZONE =         -22481.80
     UNSATURATED ZONE =       -3020026.10       UNSATURATED ZONE =         -11091.64
       SATURATED ZONE =         682592.42         SATURATED ZONE =          -1050.81

 OVERALL BUDGET ERROR =          32583.95           BUDGET ERROR =            -75.95


  PERCENT DISCREPANCY =              0.92    PERCENT DISCREPANCY =             -0.21



1
 SUMMARY VOLUMETRIC BUDGET FOR GSFLOW 
 DATE: 02 24 1991              CUMULATIVE TIME STEP:      24
 MODFLOW STRESS PERIOD      6     CURRENT TIME STEP:     147     ITERATIONS:       5

 -----------------------------------------------------------------------------------

   CUMULATIVE VOLUMES               L**3   RATES FOR THIS TIME STEP           L**3/T
   ------------------                      ------------------------

                                     IN                                         IN
                                     --                                         --
        PRECIPITATION =        3510173.01          PRECIPITATION =                  
           STREAMFLOW =                               STREAMFLOW =                  
     GW BOUNDARY FLOW =             27.30       GW BOUNDARY FLOW =              0.76


                                    OUT                                        OUT
                                    ---                                        ---
   EVAPOTRANSPIRATION =        2253932.20     EVAPOTRANSPIRATION =          21630.96
           STREAMFLOW =        1581369.11             STREAMFLOW =          11971.90
     GW BOUNDARY FLOW =           5268.93       GW BOUNDARY FLOW =             35.48

   INFLOWS - OUTFLOWS =        -330369.93     INFLOWS - OUTFLOWS =         -33637.58
             --------                                   --------

 TOTAL STORAGE CHANGE =        -362249.56         STORAGE CHANGE =         -33563.82
       --------------                             --------------
         LAND SURFACE =           7435.72           LAND SURFACE =           -217.69
            SOIL ZONE =        2053350.83              SOIL ZONE =         -21047.86
     UNSATURATED ZONE =       -3096002.00       UNSATURATED ZONE =         -10676.40
       SATURATED ZONE =         672965.12         SATURATED ZONE =          -1621.87

 OVERALL BUDGET ERROR =          31879.63           BUDGET ERROR =            -73.77


  PERCENT DISCREPANCY =              0.83    PERCENT DISCREPANCY =             -0.22



1
 SUMMARY VOLUMETRIC BUDGET FOR GSFLOW 
 DATE: 03 03 1991              CUMULATIVE TIME STEP:       3
 MODFLOW STRESS PERIOD      7     CURRENT TIME STEP:     154     ITERATIONS:       5

 -----------------------------------------------------------------------------------

   CUMULATIVE VOLUMES               L**3   RATES FOR THIS TIME STEP           L**3/T
   ------------------                      ------------------------

                                     IN                                         IN
                                     --                                         --
        PRECIPITATION =        6220189.63          PRECIPITATION =        1243187.24
           STREAMFLOW =                               STREAMFLOW =                  
     GW BOUNDARY FLOW =             32.90       GW BOUNDARY FLOW =              0.83


                                    OUT                                        OUT
                                    ---                                        ---
   EVAPOTRANSPIRATION =        2405971.19     EVAPOTRANSPIRATION =           8442.21
           STREAMFLOW =        1664948.68             STREAMFLOW =          12346.00
     GW BOUNDARY FLOW =           5516.62       GW BOUNDARY FLOW =             35.34

   INFLOWS - OUTFLOWS =        2143786.04     INFLOWS - OUTFLOWS =        1222364.53
             --------                                   --------

 TOTAL STORAGE CHANGE =        2105193.37         STORAGE CHANGE =        1215192.40
       --------------                             --------------
         LAND SURFACE =        2352761.88           LAND SURFACE =         894135.84
            SOIL ZONE =        2263518.52              SOIL ZONE =         333708.22
     UNSATURATED ZONE =       -3168889.19       UNSATURATED ZONE =         -10270.33
       SATURATED ZONE =         657801.30         SATURATED ZONE =          -2381.34

 OVERALL BUDGET ERROR =          38592.67           BUDGET ERROR =           7172.12


  PERCENT DISCREPANCY =              0.62    PERCENT DISCREPANCY =              0.58



1
 SUMMARY VOLUMETRIC BUDGET FOR GSFLOW 
 DATE: 03 10 1991              CUMULATIVE TIME STEP:      10
 MODFLOW STRESS PERIOD      7     CURRENT TIME STEP:     161     ITERATIONS:       5

 -----------------------------------------------------------------------------------

   CUMULATIVE VOLUMES               L**3   RATES FOR THIS TIME STEP           L**3/T
   ------------------                      ------------------------

                                     IN                                         IN
                                     --                                         --
        PRECIPITATION =        8746030.42          PRECIPITATION =          32888.55
           STREAMFLOW =                               STREAMFLOW =                  
     GW BOUNDARY FLOW =             38.93       GW BOUNDARY FLOW =              0.89


                                    OUT                                        OUT
                                    ---                                        ---
   EVAPOTRANSPIRATION =        2479161.75     EVAPOTRANSPIRATION =           8863.53
           STREAMFLOW =        1853555.48             STREAMFLOW =          22331.21
     GW BOUNDARY FLOW =           5765.61       GW BOUNDARY FLOW =             35.45

   INFLOWS - OUTFLOWS =        4407586.51     INFLOWS - OUTFLOWS =           1659.25
             --------                                   --------

 TOTAL STORAGE CHANGE =        4356972.43         STORAGE CHANGE =           1472.14
       --------------                             --------------
         LAND SURFACE =        2523463.28           LAND SURFACE =         -14137.08
            SOIL ZONE =        4370655.64              SOIL ZONE =          18841.86
     UNSATURATED ZONE =       -3189734.82       UNSATURATED ZONE =          -1921.15
       SATURATED ZONE =         652587.27         SATURATED ZONE =          -1311.52

 OVERALL BUDGET ERROR =          50614.08           BUDGET ERROR =            187.11


  PERCENT DISCREPANCY =              0.58    PERCENT DISCREPANCY =              0.57



1
 SUMMARY VOLUMETRIC BUDGET FOR GSFLOW 
 DATE: 03 17 1991              CUMULATIVE TIME STEP:      17
 MODFLOW STRESS PERIOD      7     CURRENT TIME STEP:     168     ITERATIONS:       5

 -----------------------------------------------------------------------------------

   CUMULATIVE VOLUMES               L**3   RATES FOR THIS TIME STEP           L**3/T
   ------------------                      ------------------------

                                     IN                                         IN
                                     --                                         --
        PRECIPITATION =        9897129.71          PRECIPITATION =         157865.04
           STREAMFLOW =                               STREAMFLOW =                  
     GW BOUNDARY FLOW =             45.38       GW BOUNDARY FLOW =              0.95


                                    OUT                                        OUT
                                    ---                                        ---
   EVAPOTRANSPIRATION =        2507000.63     EVAPOTRANSPIRATION =           8079.79
           STREAMFLOW =        1997236.01             STREAMFLOW =          19858.68
     GW BOUNDARY FLOW =           6012.92       GW BOUNDARY FLOW =             35.25

   INFLOWS - OUTFLOWS =        5386925.53     INFLOWS - OUTFLOWS =         129892.27
             --------                                   --------

 TOTAL STORAGE CHANGE =        5336419.73         STORAGE CHANGE =         129937.45
       --------------                             --------------
         LAND SURFACE =        3672302.31           LAND SURFACE =         157496.61
            SOIL ZONE =        4230547.91              SOIL ZONE =         -22812.82
     UNSATURATED ZONE =       -3206661.83       UNSATURATED ZONE =          -2699.02
       SATURATED ZONE =         640230.07         SATURATED ZONE =          -2047.35

 OVERALL BUDGET ERROR =          50505.81           BUDGET ERROR =            -45.18


  PERCENT DISCREPANCY =              0.51    PERCENT DISCREPANCY =             -0.03



1
 SUMMARY VOLUMETRIC BUDGET FOR GSFLOW 
 DATE: 03 24 1991              CUMULATIVE TIME STEP:      24
 MODFLOW STRESS PERIOD      7     CURRENT TIME STEP:     175     ITERATIONS:       5

 -----------------------------------------------------------------------------------

   CUMULATIVE VOLUMES               L**3   RATES FOR THIS TIME STEP           L**3/T
   ------------------                      ------------------------

                                     IN                                         IN
                                     --                                         --
        PRECIPITATION =        1.1673D+07          PRECIPITATION =        1230031.83
           STREAMFLOW =                               STREAMFLOW =                  
     GW BOUNDARY FLOW =             52.23       GW BOUNDARY FLOW =              1.00


                                    OUT                                        OUT
                                    ---                                        ---
   EVAPOTRANSPIRATION =        2545814.86     EVAPOTRANSPIRATION =           4663.51
           STREAMFLOW =        2132095.51             STREAMFLOW =          18959.72
     GW BOUNDARY FLOW =           6259.01       GW BOUNDARY FLOW =             35.09

   INFLOWS - OUTFLOWS =        6988994.36     INFLOWS - OUTFLOWS =        1206374.52
             --------                                   --------

 TOTAL STORAGE CHANGE =        6938461.65         STORAGE CHANGE =        1206377.38
       --------------                             --------------
         LAND SURFACE =        5426161.22           LAND SURFACE =        1230031.83
            SOIL ZONE =        4117274.61              SOIL ZONE =         -17721.54
     UNSATURATED ZONE =       -3229198.83       UNSATURATED ZONE =          -3466.27
       SATURATED ZONE =         624223.16         SATURATED ZONE =          -2466.67

 OVERALL BUDGET ERROR =          50532.70           BUDGET ERROR =             -2.86


  PERCENT DISCREPANCY =              0.43    PERCENT DISCREPANCY =             -0.00



1
 SUMMARY VOLUMETRIC BUDGET FOR GSFLOW 
 DATE: 03 31 1991              CUMULATIVE TIME STEP:      31
 MODFLOW STRESS PERIOD      7     CURRENT TIME STEP:     182     ITERATIONS:       6

 -----------------------------------------------------------------------------------

   CUMULATIVE VOLUMES               L**3   RATES FOR THIS TIME STEP           L**3/T
   ------------------                      ------------------------

                                     IN                                         IN
                                     --                                         --
        PRECIPITATION =        1.2495D+07          PRECIPITATION =                  
           STREAMFLOW =                               STREAMFLOW =                  
     GW BOUNDARY FLOW =             59.47       GW BOUNDARY FLOW =              1.06


                                    OUT                                        OUT
                                    ---                                        ---
   EVAPOTRANSPIRATION =        2667196.30     EVAPOTRANSPIRATION =          47900.58
           STREAMFLOW =        2267003.10             STREAMFLOW =          22510.39
     GW BOUNDARY FLOW =           6504.12       GW BOUNDARY FLOW =             35.03

   INFLOWS - OUTFLOWS =        7554681.24     INFLOWS - OUTFLOWS =         -70444.94
             --------                                   --------

 TOTAL STORAGE CHANGE =        7502915.56         STORAGE CHANGE =         -71289.71
       --------------                             --------------
         LAND SURFACE =        5977198.26           LAND SURFACE =        -148137.48
            SOIL ZONE =        4172890.28              SOIL ZONE =          81949.64
     UNSATURATED ZONE =       -3253370.60       UNSATURATED ZONE =          -2435.63
       SATURATED ZONE =         606195.92         SATURATED ZONE =          -2666.27

 OVERALL BUDGET ERROR =          51765.68           BUDGET ERROR =            844.77


  PERCENT DISCREPANCY =              0.42    PERCENT DISCREPANCY =              1.19



1
 SUMMARY VOLUMETRIC BUDGET FOR GSFLOW 
 DATE: 04 07 1991              CUMULATIVE TIME STEP:       7
 MODFLOW STRESS PERIOD      8     CURRENT TIME STEP:     189     ITERATIONS:       7

 -----------------------------------------------------------------------------------

   CUMULATIVE VOLUMES               L**3   RATES FOR THIS TIME STEP           L**3/T
   ------------------                      ------------------------

                                     IN                                         IN
                                     --                                         --
        PRECIPITATION =        1.3018D+07          PRECIPITATION =                  
           STREAMFLOW =                               STREAMFLOW =                  
     GW BOUNDARY FLOW =             67.08       GW BOUNDARY FLOW =              1.11


                                    OUT                                        OUT
                                    ---                                        ---
   EVAPOTRANSPIRATION =        2974924.16     EVAPOTRANSPIRATION =          15898.60
           STREAMFLOW =        2590480.24             STREAMFLOW =          64690.52
     GW BOUNDARY FLOW =           6751.59       GW BOUNDARY FLOW =             35.62

   INFLOWS - OUTFLOWS =        7445647.83     INFLOWS - OUTFLOWS =         -80623.64
             --------                                   --------

 TOTAL STORAGE CHANGE =        7385947.33         STORAGE CHANGE =         -81153.56
       --------------                             --------------
         LAND SURFACE =        4335933.24           LAND SURFACE =         -73164.41
            SOIL ZONE =        5688655.07              SOIL ZONE =         -15320.44
     UNSATURATED ZONE =       -3229781.12       UNSATURATED ZONE =           9289.22
       SATURATED ZONE =         591138.18         SATURATED ZONE =          -1957.97

 OVERALL BUDGET ERROR =          59700.50           BUDGET ERROR =            529.92


  PERCENT DISCREPANCY =              0.46    PERCENT DISCREPANCY =              0.66



1
 SUMMARY VOLUMETRIC BUDGET FOR GSFLOW 
 DATE: 04 14 1991              CUMULATIVE TIME STEP:      14
 MODFLOW STRESS PERIOD      8     CURRENT TIME STEP:     196     ITERATIONS:       7

 -----------------------------------------------------------------------------------

   CUMULATIVE VOLUMES               L**3   RATES FOR THIS TIME STEP           L**3/T
   ------------------                      ------------------------

                                     IN                                         IN
                                     --                                         --
        PRECIPITATION =        1.3018D+07          PRECIPITATION =                  
           STREAMFLOW =                               STREAMFLOW =                  
     GW BOUNDARY FLOW =             75.00       GW BOUNDARY FLOW =              1.15


                                    OUT                                        OUT
                                    ---                                        ---
   EVAPOTRANSPIRATION =        3158752.82     EVAPOTRANSPIRATION =          42038.36
           STREAMFLOW =        3089436.31             STREAMFLOW =          75942.81
     GW BOUNDARY FLOW =           7000.96       GW BOUNDARY FLOW =             35.64

   INFLOWS - OUTFLOWS =        6762621.65     INFLOWS - OUTFLOWS =        -118015.66
             --------                                   --------

 TOTAL STORAGE CHANGE =        6700107.38         STORAGE CHANGE =        -118768.64
       --------------                             --------------
         LAND SURFACE =        3672284.11           LAND SURFACE =        -192335.10
            SOIL ZONE =        5617270.20              SOIL ZONE =          66835.21
     UNSATURATED ZONE =       -3167857.41       UNSATURATED ZONE =           8386.29
       SATURATED ZONE =         578408.19         SATURATED ZONE =          -1655.08

 OVERALL BUDGET ERROR =          62514.27           BUDGET ERROR =            752.98


  PERCENT DISCREPANCY =              0.48    PERCENT DISCREPANCY =              0.64



1
 SUMMARY VOLUMETRIC BUDGET FOR GSFLOW 
 DATE: 04 21 1991              CUMULATIVE TIME STEP:      21
 MODFLOW STRESS PERIOD      8     CURRENT TIME STEP:     203     ITERATIONS:       9

 -----------------------------------------------------------------------------------

   CUMULATIVE VOLUMES               L**3   RATES FOR THIS TIME STEP           L**3/T
   ------------------                      ------------------------

                                     IN                                         IN
                                     --                                         --
        PRECIPITATION =        1.3034D+07          PRECIPITATION =                  
           STREAMFLOW =                               STREAMFLOW =                  
     GW BOUNDARY FLOW =             83.22       GW BOUNDARY FLOW =              1.19


                                    OUT                                        OUT
                                    ---                                        ---
   EVAPOTRANSPIRATION =        3412249.39     EVAPOTRANSPIRATION =          46824.24
           STREAMFLOW =        3662955.79             STREAMFLOW =          93632.25
     GW BOUNDARY FLOW =           7250.54       GW BOUNDARY FLOW =             35.76

   INFLOWS - OUTFLOWS =        5951689.60     INFLOWS - OUTFLOWS =        -140491.06
             --------                                   --------

 TOTAL STORAGE CHANGE =        5885109.61         STORAGE CHANGE =        -141214.93
       --------------                             --------------
         LAND SURFACE =        2500870.94           LAND SURFACE =        -216968.59
            SOIL ZONE =        5921090.95              SOIL ZONE =          66470.49
     UNSATURATED ZONE =       -3104154.16       UNSATURATED ZONE =          10627.49
       SATURATED ZONE =         567299.24         SATURATED ZONE =          -1344.37

 OVERALL BUDGET ERROR =          66579.99           BUDGET ERROR =            723.87


  PERCENT DISCREPANCY =              0.51    PERCENT DISCREPANCY =              0.51



1
 SUMMARY VOLUMETRIC BUDGET FOR GSFLOW 
 DATE: 04 28 1991              CUMULATIVE TIME STEP:      28
 MODFLOW STRESS PERIOD      8     CURRENT TIME STEP:     210     ITERATIONS:       6

 -----------------------------------------------------------------------------------

   CUMULATIVE VOLUMES               L**3   RATES FOR THIS TIME STEP           L**3/T
   ------------------                      ------------------------

                                     IN                                         IN
                                     --                                         --
        PRECIPITATION =        1.3303D+07          PRECIPITATION =                  
           STREAMFLOW =                               STREAMFLOW =                  
     GW BOUNDARY FLOW =             91.72       GW BOUNDARY FLOW =              1.23


                                    OUT                                        OUT
                                    ---                                        ---
   EVAPOTRANSPIRATION =        3680249.11     EVAPOTRANSPIRATION =          58043.94
           STREAMFLOW =        4335139.11             STREAMFLOW =          95316.68
     GW BOUNDARY FLOW =           7500.70       GW BOUNDARY FLOW =             35.69

   INFLOWS - OUTFLOWS =        5280633.31     INFLOWS - OUTFLOWS =        -153395.08
             --------                                   --------

 TOTAL STORAGE CHANGE =        5210764.40         STORAGE CHANGE =        -153657.24
       --------------                             --------------
         LAND SURFACE =        1748447.64           LAND SURFACE =        -137153.52
            SOIL ZONE =        5930365.56              SOIL ZONE =         -25899.42
     UNSATURATED ZONE =       -3028485.14       UNSATURATED ZONE =          10354.93
       SATURATED ZONE =         560433.31         SATURATED ZONE =           -959.29

 OVERALL BUDGET ERROR =          69868.90           BUDGET ERROR =            262.16


  PERCENT DISCREPANCY =              0.53    PERCENT DISCREPANCY =              0.17



1
 SUMMARY VOLUMETRIC BUDGET FOR GSFLOW 
 DATE: 05 05 1991              CUMULATIVE TIME STEP:       5
 MODFLOW STRESS PERIOD      9     CURRENT TIME STEP:     217     ITERATIONS:      74

 -----------------------------------------------------------------------------------

   CUMULATIVE VOLUMES               L**3   RATES FOR THIS TIME STEP           L**3/T
   ------------------                      ------------------------

                                     IN                                         IN
                                     --                                         --
        PRECIPITATION =        1.3510D+07          PRECIPITATION =                  
           STREAMFLOW =                               STREAMFLOW =                  
     GW BOUNDARY FLOW =            100.47       GW BOUNDARY FLOW =              1.27


                                    OUT                                        OUT
                                    ---                                        ---
   EVAPOTRANSPIRATION =        4056864.13     EVAPOTRANSPIRATION =          90143.90
           STREAMFLOW =        4944916.42             STREAMFLOW =          86838.98
     GW BOUNDARY FLOW =           7749.32       GW BOUNDARY FLOW =             35.45

   INFLOWS - OUTFLOWS =        4500278.73     INFLOWS - OUTFLOWS =        -177017.07
             --------                                   --------

 TOTAL STORAGE CHANGE =        4429135.06         STORAGE CHANGE =        -177097.49
       --------------                             --------------
         LAND SURFACE =        1036420.07           LAND SURFACE =        -150153.36
            SOIL ZONE =        5801871.61              SOIL ZONE =         -35904.75
     UNSATURATED ZONE =       -2963893.57       UNSATURATED ZONE =           7939.45
       SATURATED ZONE =         554733.49         SATURATED ZONE =           1021.11

 OVERALL BUDGET ERROR =          71143.68           BUDGET ERROR =             80.42


  PERCENT DISCREPANCY =              0.53    PERCENT DISCREPANCY =              0.05



1
 SUMMARY VOLUMETRIC BUDGET FOR GSFLOW 
 DATE: 05 12 1991              CUMULATIVE TIME STEP:      12
 MODFLOW STRESS PERIOD      9     CURRENT TIME STEP:     224     ITERATIONS:       7

 -----------------------------------------------------------------------------------

   CUMULATIVE VOLUMES               L**3   RATES FOR THIS TIME STEP           L**3/T
   ------------------                      ------------------------

                                     IN                                         IN
                                     --                                         --
        PRECIPITATION =        1.4029D+07          PRECIPITATION =                  
           STREAMFLOW =                               STREAMFLOW =                  
     GW BOUNDARY FLOW =            109.49       GW BOUNDARY FLOW =              1.31


                                    OUT                                        OUT
                                    ---                                        ---
   EVAPOTRANSPIRATION =        4452104.22     EVAPOTRANSPIRATION =          68733.19
           STREAMFLOW =        5513342.53             STREAMFLOW =          84350.88
     GW BOUNDARY FLOW =           7996.21       GW BOUNDARY FLOW =             35.23

   INFLOWS - OUTFLOWS =        4055888.68     INFLOWS - OUTFLOWS =        -153117.98
             --------                                   --------

 TOTAL STORAGE CHANGE =        3983158.02         STORAGE CHANGE =        -153141.81
       --------------                             --------------
         LAND SURFACE =         579124.41           LAND SURFACE =        -205427.93
            SOIL ZONE =        5761432.42              SOIL ZONE =          45091.66
     UNSATURATED ZONE =       -2903528.18       UNSATURATED ZONE =           8434.79
       SATURATED ZONE =         546125.49         SATURATED ZONE =          -1240.39

 OVERALL BUDGET ERROR =          72730.67           BUDGET ERROR =             23.82


  PERCENT DISCREPANCY =              0.52    PERCENT DISCREPANCY =              0.02



1
 SUMMARY VOLUMETRIC BUDGET FOR GSFLOW 
 DATE: 05 19 1991              CUMULATIVE TIME STEP:      19
 MODFLOW STRESS PERIOD      9     CURRENT TIME STEP:     231     ITERATIONS:       7

 -----------------------------------------------------------------------------------

   CUMULATIVE VOLUMES               L**3   RATES FOR THIS TIME STEP           L**3/T
   ------------------                      ------------------------

                                     IN                                         IN
                                     --                                         --
        PRECIPITATION =        1.4365D+07          PRECIPITATION =                  
           STREAMFLOW =                               STREAMFLOW =                  
     GW BOUNDARY FLOW =            118.78       GW BOUNDARY FLOW =              1.34


                                    OUT                                        OUT
                                    ---                                        ---
   EVAPOTRANSPIRATION =        4890357.64     EVAPOTRANSPIRATION =          20369.32
           STREAMFLOW =        6006514.68             STREAMFLOW =          62419.53
     GW BOUNDARY FLOW =           8240.90       GW BOUNDARY FLOW =             34.77

   INFLOWS - OUTFLOWS =        3460383.88     INFLOWS - OUTFLOWS =         -82822.27
             --------                                   --------

 TOTAL STORAGE CHANGE =        3386912.37         STORAGE CHANGE =         -82867.64
       --------------                             --------------
         LAND SURFACE =         228252.15           LAND SURFACE =         -22354.64
            SOIL ZONE =        5478391.78              SOIL ZONE =         -64570.91
     UNSATURATED ZONE =       -2856369.09       UNSATURATED ZONE =           5427.52
       SATURATED ZONE =         536633.21         SATURATED ZONE =          -1369.67

 OVERALL BUDGET ERROR =          73471.52           BUDGET ERROR =             45.36


  PERCENT DISCREPANCY =              0.51    PERCENT DISCREPANCY =              0.05



1
 SUMMARY VOLUMETRIC BUDGET FOR GSFLOW 
 DATE: 05 26 1991              CUMULATIVE TIME STEP:      26
 MODFLOW STRESS PERIOD      9     CURRENT TIME STEP:     238     ITERATIONS:       6

 -----------------------------------------------------------------------------------

   CUMULATIVE VOLUMES               L**3   RATES FOR THIS TIME STEP           L**3/T
   ------------------                      ------------------------

                                     IN                                         IN
                                     --                                         --
        PRECIPITATION =        1.4426D+07          PRECIPITATION =                  
           STREAMFLOW =                               STREAMFLOW =                  
     GW BOUNDARY FLOW =            128.36       GW BOUNDARY FLOW =              1.39


                                    OUT                                        OUT
                                    ---                                        ---
   EVAPOTRANSPIRATION =        5574521.06     EVAPOTRANSPIRATION =          76900.78
           STREAMFLOW =        6360893.40             STREAMFLOW =          37426.16
     GW BOUNDARY FLOW =           8482.37       GW BOUNDARY FLOW =             34.21

   INFLOWS - OUTFLOWS =        2482729.14     INFLOWS - OUTFLOWS =        -114359.77
             --------                                   --------

 TOTAL STORAGE CHANGE =        2409363.90         STORAGE CHANGE =        -114470.89
       --------------                             --------------
         LAND SURFACE =          55233.90           LAND SURFACE =          -8157.37
            SOIL ZONE =        4666359.36              SOIL ZONE =        -103974.30
     UNSATURATED ZONE =       -2837103.32       UNSATURATED ZONE =           -289.69
       SATURATED ZONE =         524869.19         SATURATED ZONE =          -2049.60

 OVERALL BUDGET ERROR =          73365.24           BUDGET ERROR =            111.12


  PERCENT DISCREPANCY =              0.51    PERCENT DISCREPANCY =              0.10



1
 SUMMARY VOLUMETRIC BUDGET FOR GSFLOW 
 DATE: 06 02 1991              CUMULATIVE TIME STEP:       2
 MODFLOW STRESS PERIOD     10     CURRENT TIME STEP:     245     ITERATIONS:       6

 -----------------------------------------------------------------------------------

   CUMULATIVE VOLUMES               L**3   RATES FOR THIS TIME STEP           L**3/T
   ------------------                      ------------------------

                                     IN                                         IN
                                     --                                         --
        PRECIPITATION =        1.4671D+07          PRECIPITATION =                  
           STREAMFLOW =                               STREAMFLOW =                  
     GW BOUNDARY FLOW =            138.22       GW BOUNDARY FLOW =              1.43


                                    OUT                                        OUT
                                    ---                                        ---
   EVAPOTRANSPIRATION =        6163065.82     EVAPOTRANSPIRATION =         127566.80
           STREAMFLOW =        6588249.26             STREAMFLOW =          28433.66
     GW BOUNDARY FLOW =           8720.53       GW BOUNDARY FLOW =             33.88

   INFLOWS - OUTFLOWS =        1911077.41     INFLOWS - OUTFLOWS =        -156032.91
             --------                                   --------

 TOTAL STORAGE CHANGE =        1838212.08         STORAGE CHANGE =        -155450.33
       --------------                             --------------
         LAND SURFACE =          19760.70           LAND SURFACE =          -4094.13
            SOIL ZONE =        4161973.15              SOIL ZONE =        -145614.04
     UNSATURATED ZONE =       -2851179.93       UNSATURATED ZONE =          -2956.27
       SATURATED ZONE =         507652.95         SATURATED ZONE =          -2785.96

 OVERALL BUDGET ERROR =          72865.33           BUDGET ERROR =           -582.58


  PERCENT DISCREPANCY =              0.50    PERCENT DISCREPANCY =             -0.37



1
 SUMMARY VOLUMETRIC BUDGET FOR GSFLOW 
 DATE: 06 09 1991              CUMULATIVE TIME STEP:       9
 MODFLOW STRESS PERIOD     10     CURRENT TIME STEP:     252     ITERATIONS:       7

 -----------------------------------------------------------------------------------

   CUMULATIVE VOLUMES               L**3   RATES FOR THIS TIME STEP           L**3/T
   ------------------                      ------------------------

                                     IN                                         IN
                                     --                                         --
        PRECIPITATION =        1.4671D+07          PRECIPITATION =                  
           STREAMFLOW =                               STREAMFLOW =                  
     GW BOUNDARY FLOW =            148.39       GW BOUNDARY FLOW =              1.47


                                    OUT                                        OUT
                                    ---                                        ---
   EVAPOTRANSPIRATION =        6951547.06     EVAPOTRANSPIRATION =         172470.54
           STREAMFLOW =        6746809.45             STREAMFLOW =          19101.54
     GW BOUNDARY FLOW =           8956.18       GW BOUNDARY FLOW =             33.52

   INFLOWS - OUTFLOWS =         963810.50     INFLOWS - OUTFLOWS =        -191604.12
             --------                                   --------

 TOTAL STORAGE CHANGE =         892425.02         STORAGE CHANGE =        -190926.53
       --------------                             --------------
         LAND SURFACE =           3957.39           LAND SURFACE =          -2186.13
            SOIL ZONE =        3290073.29              SOIL ZONE =        -178875.63
     UNSATURATED ZONE =       -2886108.63       UNSATURATED ZONE =          -6064.04
       SATURATED ZONE =         484497.31         SATURATED ZONE =          -3800.80

 OVERALL BUDGET ERROR =          71385.48           BUDGET ERROR =           -677.59


  PERCENT DISCREPANCY =              0.49    PERCENT DISCREPANCY =             -0.35



1
 SUMMARY VOLUMETRIC BUDGET FOR GSFLOW 
 DATE: 06 16 1991              CUMULATIVE TIME STEP:      16
 MODFLOW STRESS PERIOD     10     CURRENT TIME STEP:     259     ITERATIONS:       6

 -----------------------------------------------------------------------------------

   CUMULATIVE VOLUMES               L**3   RATES FOR THIS TIME STEP           L**3/T
   ------------------                      ------------------------

                                     IN                                         IN
                                     --                                         --
        PRECIPITATION =        1.4671D+07          PRECIPITATION =                  
           STREAMFLOW =                               STREAMFLOW =                  
     GW BOUNDARY FLOW =            158.87       GW BOUNDARY FLOW =              1.52


                                    OUT                                        OUT
                                    ---                                        ---
   EVAPOTRANSPIRATION =        7968181.54     EVAPOTRANSPIRATION =         117014.79
           STREAMFLOW =        6849874.73             STREAMFLOW =          12817.45
     GW BOUNDARY FLOW =           9188.27       GW BOUNDARY FLOW =             33.04

   INFLOWS - OUTFLOWS =        -156110.88     INFLOWS - OUTFLOWS =        -129863.76
             --------                                   --------

 TOTAL STORAGE CHANGE =        -222249.51         STORAGE CHANGE =        -129088.63
       --------------                             --------------
         LAND SURFACE =            106.65           LAND SURFACE =            -66.98
            SOIL ZONE =        2293546.25              SOIL ZONE =        -107788.36
     UNSATURATED ZONE =       -2968220.88       UNSATURATED ZONE =         -15784.24
       SATURATED ZONE =         452312.34         SATURATED ZONE =          -5449.11

 OVERALL BUDGET ERROR =          66138.63           BUDGET ERROR =           -775.13


  PERCENT DISCREPANCY =              0.45    PERCENT DISCREPANCY =             -0.60



1
 SUMMARY VOLUMETRIC BUDGET FOR GSFLOW 
 DATE: 06 23 1991              CUMULATIVE TIME STEP:      23
 MODFLOW STRESS PERIOD     10     CURRENT TIME STEP:     266     ITERATIONS:       7

 -----------------------------------------------------------------------------------

   CUMULATIVE VOLUMES               L**3   RATES FOR THIS TIME STEP           L**3/T
   ------------------                      ------------------------

                                     IN                                         IN
                                     --                                         --
        PRECIPITATION =        1.4671D+07          PRECIPITATION =                  
           STREAMFLOW =                               STREAMFLOW =                  
     GW BOUNDARY FLOW =            169.65       GW BOUNDARY FLOW =              1.56


                                    OUT                                        OUT
                                    ---                                        ---
   EVAPOTRANSPIRATION =        8510711.16     EVAPOTRANSPIRATION =          38765.51
           STREAMFLOW =        6932684.81             STREAMFLOW =          12056.05
     GW BOUNDARY FLOW =           9418.85       GW BOUNDARY FLOW =             32.91

   INFLOWS - OUTFLOWS =        -781670.37     INFLOWS - OUTFLOWS =         -50852.91
             --------                                   --------

 TOTAL STORAGE CHANGE =        -843610.20         STORAGE CHANGE =         -50573.19
       --------------                             --------------
         LAND SURFACE =             16.57           LAND SURFACE =             -3.65
            SOIL ZONE =        1826759.32              SOIL ZONE =         -31395.56
     UNSATURATED ZONE =       -3078722.42       UNSATURATED ZONE =         -12793.78
       SATURATED ZONE =         408329.75         SATURATED ZONE =          -6380.25

 OVERALL BUDGET ERROR =          61939.84           BUDGET ERROR =           -279.73


  PERCENT DISCREPANCY =              0.40    PERCENT DISCREPANCY =             -0.55



1
 SUMMARY VOLUMETRIC BUDGET FOR GSFLOW 
 DATE: 06 30 1991              CUMULATIVE TIME STEP:      30
 MODFLOW STRESS PERIOD     10     CURRENT TIME STEP:     273     ITERATIONS:       7

 -----------------------------------------------------------------------------------

   CUMULATIVE VOLUMES               L**3   RATES FOR THIS TIME STEP           L**3/T
   ------------------                      ------------------------

                                     IN                                         IN
[...]
     GW BOUNDARY FLOW =          50951.38       GW BOUNDARY FLOW =             24.10

   INFLOWS - OUTFLOWS =       -1.1500D+07     INFLOWS - OUTFLOWS =         -80479.90
             --------                                   --------

 TOTAL STORAGE CHANGE =       -1.1868D+07         STORAGE CHANGE =         -80342.34
       --------------                             --------------
         LAND SURFACE =         179293.21           LAND SURFACE =         -11102.33
            SOIL ZONE =        1380726.30              SOIL ZONE =         -50397.05
     UNSATURATED ZONE =           6195.33       UNSATURATED ZONE =         -11787.74
       SATURATED ZONE =       -1.3435D+07         SATURATED ZONE =          -7055.76

 OVERALL BUDGET ERROR =         367671.62           BUDGET ERROR =           -137.56


  PERCENT DISCREPANCY =              0.25    PERCENT DISCREPANCY =             -0.17



1
 SUMMARY VOLUMETRIC BUDGET FOR GSFLOW 
 DATE: 09 03 1995              CUMULATIVE TIME STEP:       3
 MODFLOW STRESS PERIOD     61     CURRENT TIME STEP:    1799     ITERATIONS:       7

 -----------------------------------------------------------------------------------

   CUMULATIVE VOLUMES               L**3   RATES FOR THIS TIME STEP           L**3/T
   ------------------                      ------------------------

                                     IN                                         IN
                                     --                                         --
        PRECIPITATION =        1.3351D+08          PRECIPITATION =                  
           STREAMFLOW =                               STREAMFLOW =                  
     GW BOUNDARY FLOW =           5626.02       GW BOUNDARY FLOW =              3.53


                                    OUT                                        OUT
                                    ---                                        ---
   EVAPOTRANSPIRATION =        7.3348D+07     EVAPOTRANSPIRATION =          63190.64
           STREAMFLOW =        7.2143D+07             STREAMFLOW =           6626.29
     GW BOUNDARY FLOW =          51119.65       GW BOUNDARY FLOW =             24.00

   INFLOWS - OUTFLOWS =       -1.2029D+07     INFLOWS - OUTFLOWS =         -69837.40
             --------                                   --------

 TOTAL STORAGE CHANGE =       -1.2396D+07         STORAGE CHANGE =         -69806.32
       --------------                             --------------
         LAND SURFACE =         114525.52           LAND SURFACE =          -7766.54
            SOIL ZONE =        1049020.86              SOIL ZONE =         -43570.38
     UNSATURATED ZONE =         -70991.63       UNSATURATED ZONE =         -10575.29
       SATURATED ZONE =       -1.3489D+07         SATURATED ZONE =          -7894.65

 OVERALL BUDGET ERROR =         367031.70           BUDGET ERROR =            -31.08


  PERCENT DISCREPANCY =              0.25    PERCENT DISCREPANCY =             -0.04



1
 SUMMARY VOLUMETRIC BUDGET FOR GSFLOW 
 DATE: 09 10 1995              CUMULATIVE TIME STEP:      10
 MODFLOW STRESS PERIOD     61     CURRENT TIME STEP:    1806     ITERATIONS:       7

 -----------------------------------------------------------------------------------

   CUMULATIVE VOLUMES               L**3   RATES FOR THIS TIME STEP           L**3/T
   ------------------                      ------------------------

                                     IN                                         IN
                                     --                                         --
        PRECIPITATION =        1.3351D+08          PRECIPITATION =                  
           STREAMFLOW =                               STREAMFLOW =                  
     GW BOUNDARY FLOW =           5651.09       GW BOUNDARY FLOW =              3.62


                                    OUT                                        OUT
                                    ---                                        ---
   EVAPOTRANSPIRATION =        7.3702D+07     EVAPOTRANSPIRATION =          47290.83
           STREAMFLOW =        7.2191D+07             STREAMFLOW =           6670.00
     GW BOUNDARY FLOW =          51287.79       GW BOUNDARY FLOW =             24.01

   INFLOWS - OUTFLOWS =       -1.2430D+07     INFLOWS - OUTFLOWS =         -53981.22
             --------                                   --------

 TOTAL STORAGE CHANGE =       -1.2797D+07         STORAGE CHANGE =         -53957.74
       --------------                             --------------
         LAND SURFACE =          75925.35           LAND SURFACE =          -4673.87
            SOIL ZONE =         809007.32              SOIL ZONE =         -31431.18
     UNSATURATED ZONE =        -142921.63       UNSATURATED ZONE =         -10344.51
       SATURATED ZONE =       -1.3540D+07         SATURATED ZONE =          -7508.73

 OVERALL BUDGET ERROR =         366886.90           BUDGET ERROR =            -23.47


  PERCENT DISCREPANCY =              0.25    PERCENT DISCREPANCY =             -0.04



1
 SUMMARY VOLUMETRIC BUDGET FOR GSFLOW 
 DATE: 09 17 1995              CUMULATIVE TIME STEP:      17
 MODFLOW STRESS PERIOD     61     CURRENT TIME STEP:    1813     ITERATIONS:       7

 -----------------------------------------------------------------------------------

   CUMULATIVE VOLUMES               L**3   RATES FOR THIS TIME STEP           L**3/T
   ------------------                      ------------------------

                                     IN                                         IN
                                     --                                         --
        PRECIPITATION =        1.3351D+08          PRECIPITATION =                  
           STREAMFLOW =                               STREAMFLOW =                  
     GW BOUNDARY FLOW =           5676.79       GW BOUNDARY FLOW =              3.71


                                    OUT                                        OUT
                                    ---                                        ---
   EVAPOTRANSPIRATION =        7.4083D+07     EVAPOTRANSPIRATION =          43131.71
           STREAMFLOW =        7.2231D+07             STREAMFLOW =           5852.01
     GW BOUNDARY FLOW =          51455.13       GW BOUNDARY FLOW =             23.93

   INFLOWS - OUTFLOWS =       -1.2851D+07     INFLOWS - OUTFLOWS =         -49003.94
             --------                                   --------

 TOTAL STORAGE CHANGE =       -1.3218D+07         STORAGE CHANGE =         -48981.07
       --------------                             --------------
         LAND SURFACE =          44186.54           LAND SURFACE =          -3043.17
            SOIL ZONE =         564795.70              SOIL ZONE =         -26440.81
     UNSATURATED ZONE =        -219448.58       UNSATURATED ZONE =         -10703.23
       SATURATED ZONE =       -1.3608D+07         SATURATED ZONE =          -8794.40

 OVERALL BUDGET ERROR =         366677.40           BUDGET ERROR =            -22.86


  PERCENT DISCREPANCY =              0.25    PERCENT DISCREPANCY =             -0.05



1
 SUMMARY VOLUMETRIC BUDGET FOR GSFLOW 
 DATE: 09 24 1995              CUMULATIVE TIME STEP:      24
 MODFLOW STRESS PERIOD     61     CURRENT TIME STEP:    1820     ITERATIONS:       6

 -----------------------------------------------------------------------------------

   CUMULATIVE VOLUMES               L**3   RATES FOR THIS TIME STEP           L**3/T
   ------------------                      ------------------------

                                     IN                                         IN
                                     --                                         --
        PRECIPITATION =        1.3351D+08          PRECIPITATION =                  
           STREAMFLOW =                               STREAMFLOW =                  
     GW BOUNDARY FLOW =           5703.10       GW BOUNDARY FLOW =              3.79


                                    OUT                                        OUT
                                    ---                                        ---
   EVAPOTRANSPIRATION =        7.4348D+07     EVAPOTRANSPIRATION =          27426.31
           STREAMFLOW =        7.2272D+07             STREAMFLOW =           6494.75
     GW BOUNDARY FLOW =          51622.60       GW BOUNDARY FLOW =             23.97

   INFLOWS - OUTFLOWS =       -1.3158D+07     INFLOWS - OUTFLOWS =         -33941.23
             --------                                   --------

 TOTAL STORAGE CHANGE =       -1.3525D+07         STORAGE CHANGE =         -33929.05
       --------------                             --------------
         LAND SURFACE =          28055.76           LAND SURFACE =          -1559.79
            SOIL ZONE =         409276.58              SOIL ZONE =         -15434.95
     UNSATURATED ZONE =        -291459.19       UNSATURATED ZONE =          -9211.92
       SATURATED ZONE =       -1.3671D+07         SATURATED ZONE =          -7722.93

 OVERALL BUDGET ERROR =         366529.89           BUDGET ERROR =            -12.18


  PERCENT DISCREPANCY =              0.25    PERCENT DISCREPANCY =             -0.04



1
 SUMMARY VOLUMETRIC BUDGET FOR GSFLOW 
 DATE: 10 01 1995              CUMULATIVE TIME STEP:       1
 MODFLOW STRESS PERIOD     62     CURRENT TIME STEP:    1827     ITERATIONS:       6

 -----------------------------------------------------------------------------------

   CUMULATIVE VOLUMES               L**3   RATES FOR THIS TIME STEP           L**3/T
   ------------------                      ------------------------

                                     IN                                         IN
                                     --                                         --
        PRECIPITATION =        1.3351D+08          PRECIPITATION =                  
           STREAMFLOW =                               STREAMFLOW =                  
     GW BOUNDARY FLOW =           5729.98       GW BOUNDARY FLOW =              3.87


                                    OUT                                        OUT
                                    ---                                        ---
   EVAPOTRANSPIRATION =        7.4464D+07     EVAPOTRANSPIRATION =          16756.58
           STREAMFLOW =        7.2325D+07             STREAMFLOW =           7484.47
     GW BOUNDARY FLOW =          51790.97       GW BOUNDARY FLOW =             24.06

   INFLOWS - OUTFLOWS =       -1.3326D+07     INFLOWS - OUTFLOWS =         -24261.24
             --------                                   --------

 TOTAL STORAGE CHANGE =       -1.3693D+07         STORAGE CHANGE =         -24255.95
       --------------                             --------------
         LAND SURFACE =          22241.70           LAND SURFACE =           -699.89
            SOIL ZONE =         346642.16              SOIL ZONE =          -9153.86
     UNSATURATED ZONE =        -349200.27       UNSATURATED ZONE =          -8094.16
       SATURATED ZONE =       -1.3713D+07         SATURATED ZONE =          -6308.59

 OVERALL BUDGET ERROR =         366484.22           BUDGET ERROR =             -5.29


  PERCENT DISCREPANCY =              0.25    PERCENT DISCREPANCY =             -0.02



1
 SUMMARY VOLUMETRIC BUDGET FOR GSFLOW 
 DATE: 10 08 1995              CUMULATIVE TIME STEP:       8
 MODFLOW STRESS PERIOD     62     CURRENT TIME STEP:    1834     ITERATIONS:       6

 -----------------------------------------------------------------------------------

   CUMULATIVE VOLUMES               L**3   RATES FOR THIS TIME STEP           L**3/T
   ------------------                      ------------------------

                                     IN                                         IN
                                     --                                         --
        PRECIPITATION =        1.3351D+08          PRECIPITATION =                  
           STREAMFLOW =                               STREAMFLOW =                  
     GW BOUNDARY FLOW =           5757.40       GW BOUNDARY FLOW =              3.95


                                    OUT                                        OUT
                                    ---                                        ---
   EVAPOTRANSPIRATION =        7.4587D+07     EVAPOTRANSPIRATION =          15486.88
           STREAMFLOW =        7.2375D+07             STREAMFLOW =           7393.92
     GW BOUNDARY FLOW =          51959.29       GW BOUNDARY FLOW =             24.06

   INFLOWS - OUTFLOWS =       -1.3500D+07     INFLOWS - OUTFLOWS =         -22900.92
             --------                                   --------

 TOTAL STORAGE CHANGE =       -1.3867D+07         STORAGE CHANGE =         -22894.87
       --------------                             --------------
         LAND SURFACE =          18179.45           LAND SURFACE =           -628.45
            SOIL ZONE =         279460.61              SOIL ZONE =          -8135.94
     UNSATURATED ZONE =        -403984.22       UNSATURATED ZONE =          -7465.81
       SATURATED ZONE =       -1.3761D+07         SATURATED ZONE =          -6665.20

 OVERALL BUDGET ERROR =         366426.78           BUDGET ERROR =             -6.06


  PERCENT DISCREPANCY =              0.25    PERCENT DISCREPANCY =             -0.03



1
 SUMMARY VOLUMETRIC BUDGET FOR GSFLOW 
 DATE: 10 15 1995              CUMULATIVE TIME STEP:      15
 MODFLOW STRESS PERIOD     62     CURRENT TIME STEP:    1841     ITERATIONS:       5

 -----------------------------------------------------------------------------------

   CUMULATIVE VOLUMES               L**3   RATES FOR THIS TIME STEP           L**3/T
   ------------------                      ------------------------

                                     IN                                         IN
                                     --                                         --
        PRECIPITATION =        1.3351D+08          PRECIPITATION =                  
           STREAMFLOW =                               STREAMFLOW =                  
     GW BOUNDARY FLOW =           5785.31       GW BOUNDARY FLOW =              4.02


                                    OUT                                        OUT
                                    ---                                        ---
   EVAPOTRANSPIRATION =        7.4703D+07     EVAPOTRANSPIRATION =          18076.79
           STREAMFLOW =        7.2426D+07             STREAMFLOW =           6981.02
     GW BOUNDARY FLOW =          52127.58       GW BOUNDARY FLOW =             24.03

   INFLOWS - OUTFLOWS =       -1.3667D+07     INFLOWS - OUTFLOWS =         -25077.82
             --------                                   --------

 TOTAL STORAGE CHANGE =       -1.4033D+07         STORAGE CHANGE =         -25069.39
       --------------                             --------------
         LAND SURFACE =          14037.98           LAND SURFACE =           -696.59
            SOIL ZONE =         218922.62              SOIL ZONE =          -9198.69
     UNSATURATED ZONE =        -453851.88       UNSATURATED ZONE =          -6973.35
       SATURATED ZONE =       -1.3812D+07         SATURATED ZONE =          -8201.31

 OVERALL BUDGET ERROR =         366361.62           BUDGET ERROR =             -8.43


  PERCENT DISCREPANCY =              0.25    PERCENT DISCREPANCY =             -0.03



1
 SUMMARY VOLUMETRIC BUDGET FOR GSFLOW 
 DATE: 10 22 1995              CUMULATIVE TIME STEP:      22
 MODFLOW STRESS PERIOD     62     CURRENT TIME STEP:    1848     ITERATIONS:       7

 -----------------------------------------------------------------------------------

   CUMULATIVE VOLUMES               L**3   RATES FOR THIS TIME STEP           L**3/T
   ------------------                      ------------------------

                                     IN                                         IN
                                     --                                         --
        PRECIPITATION =        1.3351D+08          PRECIPITATION =                  
           STREAMFLOW =                               STREAMFLOW =                  
     GW BOUNDARY FLOW =           5813.68       GW BOUNDARY FLOW =              4.08


                                    OUT                                        OUT
                                    ---                                        ---
   EVAPOTRANSPIRATION =        7.4807D+07     EVAPOTRANSPIRATION =           4702.65
           STREAMFLOW =        7.2476D+07             STREAMFLOW =           8146.31
     GW BOUNDARY FLOW =          52295.91       GW BOUNDARY FLOW =             24.14

   INFLOWS - OUTFLOWS =       -1.3821D+07     INFLOWS - OUTFLOWS =         -12869.02
             --------                                   --------

 TOTAL STORAGE CHANGE =       -1.4187D+07         STORAGE CHANGE =         -12869.78
       --------------                             --------------
         LAND SURFACE =          10452.79           LAND SURFACE =             -6.45
            SOIL ZONE =         168055.63              SOIL ZONE =          -2048.78
     UNSATURATED ZONE =        -500480.10       UNSATURATED ZONE =          -6188.81
       SATURATED ZONE =       -1.3865D+07         SATURATED ZONE =          -4626.29

 OVERALL BUDGET ERROR =         366308.37           BUDGET ERROR =              0.76


  PERCENT DISCREPANCY =              0.25    PERCENT DISCREPANCY =              0.01



1
 SUMMARY VOLUMETRIC BUDGET FOR GSFLOW 
 DATE: 10 29 1995              CUMULATIVE TIME STEP:      29
 MODFLOW STRESS PERIOD     62     CURRENT TIME STEP:    1855     ITERATIONS:      14

 -----------------------------------------------------------------------------------

   CUMULATIVE VOLUMES               L**3   RATES FOR THIS TIME STEP           L**3/T
   ------------------                      ------------------------

                                     IN                                         IN
                                     --                                         --
        PRECIPITATION =        1.3351D+08          PRECIPITATION =                  
           STREAMFLOW =                               STREAMFLOW =                  
     GW BOUNDARY FLOW =           5842.47       GW BOUNDARY FLOW =              4.14


                                    OUT                                        OUT
                                    ---                                        ---
   EVAPOTRANSPIRATION =        7.4872D+07     EVAPOTRANSPIRATION =          11330.46
           STREAMFLOW =        7.2530D+07             STREAMFLOW =           7489.75
     GW BOUNDARY FLOW =          52464.65       GW BOUNDARY FLOW =             24.09

   INFLOWS - OUTFLOWS =       -1.3941D+07     INFLOWS - OUTFLOWS =         -18840.16
             --------                                   --------

 TOTAL STORAGE CHANGE =       -1.4307D+07         STORAGE CHANGE =         -18833.71
       --------------                             --------------
         LAND SURFACE =           9254.98           LAND SURFACE =           -359.13
            SOIL ZONE =         138082.60              SOIL ZONE =          -5038.67
     UNSATURATED ZONE =        -544652.88       UNSATURATED ZONE =          -6230.88
       SATURATED ZONE =       -1.3910D+07         SATURATED ZONE =          -7205.57

 OVERALL BUDGET ERROR =         366281.76           BUDGET ERROR =             -6.44


  PERCENT DISCREPANCY =              0.25    PERCENT DISCREPANCY =             -0.03



 Number of time steps:   1857;  Number of non-convergence:   0
 MF iterations:         11551;  SZ iterations:           11527
 Average MF iterations:  6.22;  Average SZ iterations:    6.21
 Maximum MF iterations:    74;  Maximum SZ iterations:      50

mxsziter reached: 1

