1
 SUMMARY VOLUMETRIC BUDGET FOR GSFLOW 
 DATE: 10 07 1990              CUMULATIVE TIME STEP:       7
 MODFLOW STRESS PERIOD      2     CURRENT TIME STEP:       7     ITERATIONS:       9

 -----------------------------------------------------------------------------------

   CUMULATIVE VOLUMES               L**3   RATES FOR THIS TIME STEP           L**3/T
   ------------------                      ------------------------

                                     IN                                         IN
                                     --                                         --
        PRECIPITATION =                            PRECIPITATION =                  
           STREAMFLOW =                               STREAMFLOW =                  
     GW BOUNDARY FLOW =                         GW BOUNDARY FLOW =                  


                                    OUT                                        OUT
                                    ---                                        ---
   EVAPOTRANSPIRATION =         394932.72     EVAPOTRANSPIRATION =          13152.20
           STREAMFLOW =          57085.98             STREAMFLOW =           9025.70
     GW BOUNDARY FLOW =            253.93       GW BOUNDARY FLOW =             36.37

   INFLOWS - OUTFLOWS =        -452272.63     INFLOWS - OUTFLOWS =         -22214.26
             --------                                   --------

 TOTAL STORAGE CHANGE =        -451486.78         STORAGE CHANGE =         -22152.63
       --------------                             --------------
         LAND SURFACE =                             LAND SURFACE =                  
            SOIL ZONE =        -365819.03              SOIL ZONE =          -8150.48
     UNSATURATED ZONE =        -240233.60       UNSATURATED ZONE =         -32162.91
       SATURATED ZONE =         154565.86         SATURATED ZONE =          18160.75

 OVERALL BUDGET ERROR =           -785.85           BUDGET ERROR =            -61.63


  PERCENT DISCREPANCY =             -0.17    PERCENT DISCREPANCY =             -0.28



1
 SUMMARY VOLUMETRIC BUDGET FOR GSFLOW 
 DATE: 10 14 1990              CUMULATIVE TIME STEP:      14
 MODFLOW STRESS PERIOD      2     CURRENT TIME STEP:      14     ITERATIONS:       6

 -----------------------------------------------------------------------------------

   CUMULATIVE VOLUMES               L**3   RATES FOR THIS TIME STEP           L**3/T
   ------------------                      ------------------------

                                     IN                                         IN
                                     --                                         --
        PRECIPITATION =                            PRECIPITATION =                  
           STREAMFLOW =                               STREAMFLOW =                  
     GW BOUNDARY FLOW =                         GW BOUNDARY FLOW =                  


                                    OUT                                        OUT
                                    ---                                        ---
   EVAPOTRANSPIRATION =         716004.02     EVAPOTRANSPIRATION =          59029.58
           STREAMFLOW =         118729.62             STREAMFLOW =           8922.71
     GW BOUNDARY FLOW =            508.50       GW BOUNDARY FLOW =             36.38

   INFLOWS - OUTFLOWS =        -835242.13     INFLOWS - OUTFLOWS =         -67988.68
             --------                                   --------

 TOTAL STORAGE CHANGE =        -834012.43         STORAGE CHANGE =         -67935.25
       --------------                             --------------
         LAND SURFACE =                             LAND SURFACE =                  
            SOIL ZONE =        -553738.24              SOIL ZONE =         -34181.64
     UNSATURATED ZONE =        -531536.67       UNSATURATED ZONE =         -45162.48
       SATURATED ZONE =         251262.48         SATURATED ZONE =          11408.87

 OVERALL BUDGET ERROR =          -1229.71           BUDGET ERROR =            -53.43


  PERCENT DISCREPANCY =             -0.15    PERCENT DISCREPANCY =             -0.08



1
 SUMMARY VOLUMETRIC BUDGET FOR GSFLOW 
 DATE: 10 21 1990              CUMULATIVE TIME STEP:      21
 MODFLOW STRESS PERIOD      2     CURRENT TIME STEP:      21     ITERATIONS:       6

 -----------------------------------------------------------------------------------

   CUMULATIVE VOLUMES               L**3   RATES FOR THIS TIME STEP           L**3/T
   ------------------                      ------------------------

                                     IN                                         IN
                                     --                                         --
        PRECIPITATION =         188432.87          PRECIPITATION =                  
           STREAMFLOW =                               STREAMFLOW =                  
     GW BOUNDARY FLOW =                         GW BOUNDARY FLOW =                  


                                    OUT                                        OUT
                                    ---                                        ---
   EVAPOTRANSPIRATION =         928315.17     EVAPOTRANSPIRATION =          39717.28
           STREAMFLOW =         186923.54             STREAMFLOW =          10078.36
     GW BOUNDARY FLOW =            763.69       GW BOUNDARY FLOW =             36.47

   INFLOWS - OUTFLOWS =        -927569.53     INFLOWS - OUTFLOWS =         -49832.11
             --------                                   --------

 TOTAL STORAGE CHANGE =        -926076.97         STORAGE CHANGE =         -49802.27
       --------------                             --------------
         LAND SURFACE =           4395.42           LAND SURFACE =         -25675.32
            SOIL ZONE =        -504670.22              SOIL ZONE =          -7632.79
     UNSATURATED ZONE =        -759073.32       UNSATURATED ZONE =         -28279.89
       SATURATED ZONE =         333271.14         SATURATED ZONE =          11785.74

 OVERALL BUDGET ERROR =          -1492.56           BUDGET ERROR =            -29.85


  PERCENT DISCREPANCY =             -0.13    PERCENT DISCREPANCY =             -0.06



1
 SUMMARY VOLUMETRIC BUDGET FOR GSFLOW 
 DATE: 10 28 1990              CUMULATIVE TIME STEP:      28
 MODFLOW STRESS PERIOD      2     CURRENT TIME STEP:      28     ITERATIONS:       6

 -----------------------------------------------------------------------------------

   CUMULATIVE VOLUMES               L**3   RATES FOR THIS TIME STEP           L**3/T
   ------------------                      ------------------------

                                     IN                                         IN
                                     --                                         --
        PRECIPITATION =         188432.87          PRECIPITATION =                  
           STREAMFLOW =                               STREAMFLOW =                  
     GW BOUNDARY FLOW =                         GW BOUNDARY FLOW =                  


                                    OUT                                        OUT
                                    ---                                        ---
   EVAPOTRANSPIRATION =        1194132.71     EVAPOTRANSPIRATION =          27729.82
           STREAMFLOW =         254521.06             STREAMFLOW =           9821.27
     GW BOUNDARY FLOW =           1018.42       GW BOUNDARY FLOW =             36.36

   INFLOWS - OUTFLOWS =       -1261239.32     INFLOWS - OUTFLOWS =         -37587.45
             --------                                   --------

 TOTAL STORAGE CHANGE =       -1259530.02         STORAGE CHANGE =         -37560.41
       --------------                             --------------
         LAND SURFACE =                             LAND SURFACE =                  
            SOIL ZONE =        -668799.33              SOIL ZONE =         -18217.07
     UNSATURATED ZONE =        -989704.41       UNSATURATED ZONE =         -28478.56
       SATURATED ZONE =         398973.73         SATURATED ZONE =           9135.22

 OVERALL BUDGET ERROR =          -1709.30           BUDGET ERROR =            -27.04


  PERCENT DISCREPANCY =             -0.12    PERCENT DISCREPANCY =             -0.07



1
 SUMMARY VOLUMETRIC BUDGET FOR GSFLOW 
 DATE: 11 04 1990              CUMULATIVE TIME STEP:       4
 MODFLOW STRESS PERIOD      3     CURRENT TIME STEP:      35     ITERATIONS:       6

 -----------------------------------------------------------------------------------

   CUMULATIVE VOLUMES               L**3   RATES FOR THIS TIME STEP           L**3/T
   ------------------                      ------------------------

                                     IN                                         IN
                                     --                                         --
        PRECIPITATION =         703113.06          PRECIPITATION =                  
           STREAMFLOW =                               STREAMFLOW =                  
     GW BOUNDARY FLOW =                         GW BOUNDARY FLOW =                  


                                    OUT                                        OUT
                                    ---                                        ---
   EVAPOTRANSPIRATION =        1286086.92     EVAPOTRANSPIRATION =          26232.93
           STREAMFLOW =         329587.18             STREAMFLOW =          10896.90
     GW BOUNDARY FLOW =           1273.03       GW BOUNDARY FLOW =             36.35

   INFLOWS - OUTFLOWS =        -913834.07     INFLOWS - OUTFLOWS =         -37166.18
             --------                                   --------

 TOTAL STORAGE CHANGE =        -911973.61         STORAGE CHANGE =         -37148.42
       --------------                             --------------
         LAND SURFACE =          36990.26           LAND SURFACE =         -34939.93
            SOIL ZONE =        -271117.11              SOIL ZONE =           8644.28
     UNSATURATED ZONE =       -1149818.98       UNSATURATED ZONE =         -21445.50
       SATURATED ZONE =         471972.23         SATURATED ZONE =          10592.74

 OVERALL BUDGET ERROR =          -1860.46           BUDGET ERROR =            -17.76


  PERCENT DISCREPANCY =             -0.12    PERCENT DISCREPANCY =             -0.05



1
 SUMMARY VOLUMETRIC BUDGET FOR GSFLOW 
 DATE: 11 11 1990              CUMULATIVE TIME STEP:      11
 MODFLOW STRESS PERIOD      3     CURRENT TIME STEP:      42     ITERATIONS:       6

 -----------------------------------------------------------------------------------

   CUMULATIVE VOLUMES               L**3   RATES FOR THIS TIME STEP           L**3/T
   ------------------                      ------------------------

                                     IN                                         IN
                                     --                                         --
        PRECIPITATION =         703113.06          PRECIPITATION =                  
           STREAMFLOW =                               STREAMFLOW =                  
     GW BOUNDARY FLOW =                         GW BOUNDARY FLOW =                  


                                    OUT                                        OUT
                                    ---                                        ---
   EVAPOTRANSPIRATION =        1423560.59     EVAPOTRANSPIRATION =          27689.26
           STREAMFLOW =         405370.92             STREAMFLOW =          10651.31
     GW BOUNDARY FLOW =           1526.87       GW BOUNDARY FLOW =             36.19

   INFLOWS - OUTFLOWS =       -1127345.32     INFLOWS - OUTFLOWS =         -38376.77
             --------                                   --------

 TOTAL STORAGE CHANGE =       -1125365.67         STORAGE CHANGE =         -38360.81
       --------------                             --------------
         LAND SURFACE =            195.77           LAND SURFACE =           -519.43
            SOIL ZONE =        -367560.60              SOIL ZONE =         -25290.69
     UNSATURATED ZONE =       -1297582.22       UNSATURATED ZONE =         -21055.27
       SATURATED ZONE =         539581.38         SATURATED ZONE =           8504.57

 OVERALL BUDGET ERROR =          -1979.65           BUDGET ERROR =            -15.96


  PERCENT DISCREPANCY =             -0.11    PERCENT DISCREPANCY =             -0.04



1
 SUMMARY VOLUMETRIC BUDGET FOR GSFLOW 
 DATE: 11 18 1990              CUMULATIVE TIME STEP:      18
 MODFLOW STRESS PERIOD      3     CURRENT TIME STEP:      49     ITERATIONS:       6

 -----------------------------------------------------------------------------------

   CUMULATIVE VOLUMES               L**3   RATES FOR THIS TIME STEP           L**3/T
   ------------------                      ------------------------

                                     IN                                         IN
                                     --                                         --
        PRECIPITATION =         747883.35          PRECIPITATION =                  
           STREAMFLOW =                               STREAMFLOW =                  
     GW BOUNDARY FLOW =                         GW BOUNDARY FLOW =                  


                                    OUT                                        OUT
                                    ---                                        ---
   EVAPOTRANSPIRATION =        1534956.47     EVAPOTRANSPIRATION =           6028.92
           STREAMFLOW =         480954.62             STREAMFLOW =          10961.04
     GW BOUNDARY FLOW =           1779.87       GW BOUNDARY FLOW =             36.11

   INFLOWS - OUTFLOWS =       -1269807.61     INFLOWS - OUTFLOWS =         -17026.07
             --------                                   --------

 TOTAL STORAGE CHANGE =       -1267724.41         STORAGE CHANGE =         -17011.88
       --------------                             --------------
         LAND SURFACE =           5912.97           LAND SURFACE =          -3365.44
            SOIL ZONE =        -428892.84              SOIL ZONE =          -1872.31
     UNSATURATED ZONE =       -1441722.18       UNSATURATED ZONE =         -19949.64
       SATURATED ZONE =         596977.63         SATURATED ZONE =           8175.51

 OVERALL BUDGET ERROR =          -2083.20           BUDGET ERROR =            -14.20


  PERCENT DISCREPANCY =             -0.10    PERCENT DISCREPANCY =             -0.08



1
 SUMMARY VOLUMETRIC BUDGET FOR GSFLOW 
 DATE: 11 25 1990              CUMULATIVE TIME STEP:      25
 MODFLOW STRESS PERIOD      3     CURRENT TIME STEP:      56     ITERATIONS:       6

 -----------------------------------------------------------------------------------

   CUMULATIVE VOLUMES               L**3   RATES FOR THIS TIME STEP           L**3/T
   ------------------                      ------------------------

                                     IN                                         IN
                                     --                                         --
        PRECIPITATION =        1009043.38          PRECIPITATION =         186542.88
           STREAMFLOW =                               STREAMFLOW =                  
     GW BOUNDARY FLOW =                         GW BOUNDARY FLOW =                  


                                    OUT                                        OUT
                                    ---                                        ---
   EVAPOTRANSPIRATION =        1599160.14     EVAPOTRANSPIRATION =           6350.64
           STREAMFLOW =         559180.40             STREAMFLOW =          11544.14
     GW BOUNDARY FLOW =           2032.48       GW BOUNDARY FLOW =             36.07

   INFLOWS - OUTFLOWS =       -1151329.65     INFLOWS - OUTFLOWS =         168612.03
             --------                                   --------

 TOTAL STORAGE CHANGE =       -1149159.77         STORAGE CHANGE =         168622.11
       --------------                             --------------
         LAND SURFACE =          37126.34           LAND SURFACE =          20235.48
            SOIL ZONE =        -261627.45              SOIL ZONE =         159818.20
     UNSATURATED ZONE =       -1577348.12       UNSATURATED ZONE =         -19048.51
       SATURATED ZONE =         652689.45         SATURATED ZONE =           7616.94

 OVERALL BUDGET ERROR =          -2169.87           BUDGET ERROR =            -10.08


  PERCENT DISCREPANCY =             -0.10    PERCENT DISCREPANCY =             -0.01



1
 SUMMARY VOLUMETRIC BUDGET FOR GSFLOW 
 DATE: 12 02 1990              CUMULATIVE TIME STEP:       2
 MODFLOW STRESS PERIOD      4     CURRENT TIME STEP:      63     ITERATIONS:       6

 -----------------------------------------------------------------------------------

   CUMULATIVE VOLUMES               L**3   RATES FOR THIS TIME STEP           L**3/T
   ------------------                      ------------------------

                                     IN                                         IN
                                     --                                         --
        PRECIPITATION =        1449284.55          PRECIPITATION =                  
           STREAMFLOW =                               STREAMFLOW =                  
     GW BOUNDARY FLOW =                         GW BOUNDARY FLOW =                  


                                    OUT                                        OUT
                                    ---                                        ---
   EVAPOTRANSPIRATION =        1606903.88     EVAPOTRANSPIRATION =            374.58
           STREAMFLOW =         638516.00             STREAMFLOW =          11488.35
     GW BOUNDARY FLOW =           2284.60       GW BOUNDARY FLOW =             35.98

   INFLOWS - OUTFLOWS =        -798419.92     INFLOWS - OUTFLOWS =         -11898.91
             --------                                   --------

 TOTAL STORAGE CHANGE =        -796204.04         STORAGE CHANGE =         -11892.69
       --------------                             --------------
         LAND SURFACE =         437197.96           LAND SURFACE =           -451.19
            SOIL ZONE =        -228689.63              SOIL ZONE =            135.28
     UNSATURATED ZONE =       -1707404.10       UNSATURATED ZONE =         -18219.39
       SATURATED ZONE =         702691.74         SATURATED ZONE =           6642.61

 OVERALL BUDGET ERROR =          -2215.89           BUDGET ERROR =             -6.22


  PERCENT DISCREPANCY =             -0.10    PERCENT DISCREPANCY =             -0.05



1
 SUMMARY VOLUMETRIC BUDGET FOR GSFLOW 
 DATE: 12 09 1990              CUMULATIVE TIME STEP:       9
 MODFLOW STRESS PERIOD      4     CURRENT TIME STEP:      70     ITERATIONS:       5

 -----------------------------------------------------------------------------------

   CUMULATIVE VOLUMES               L**3   RATES FOR THIS TIME STEP           L**3/T
   ------------------                      ------------------------

                                     IN                                         IN
                                     --                                         --
        PRECIPITATION =        1449284.55          PRECIPITATION =                  
           STREAMFLOW =                               STREAMFLOW =                  
     GW BOUNDARY FLOW =                         GW BOUNDARY FLOW =                  


                                    OUT                                        OUT
                                    ---                                        ---
   EVAPOTRANSPIRATION =        1700484.82     EVAPOTRANSPIRATION =          20934.73
           STREAMFLOW =         720080.37             STREAMFLOW =          11692.47
     GW BOUNDARY FLOW =           2536.12       GW BOUNDARY FLOW =             35.89

   INFLOWS - OUTFLOWS =        -973816.75     INFLOWS - OUTFLOWS =         -32663.09
             --------                                   --------

 TOTAL STORAGE CHANGE =        -971558.20         STORAGE CHANGE =         -32660.47
       --------------                             --------------
         LAND SURFACE =          41512.44           LAND SURFACE =         -36212.48
            SOIL ZONE =          74996.76              SOIL ZONE =          15907.18
     UNSATURATED ZONE =       -1833122.27       UNSATURATED ZONE =         -17953.61
       SATURATED ZONE =         745054.88         SATURATED ZONE =           5598.44

 OVERALL BUDGET ERROR =          -2258.56           BUDGET ERROR =             -2.62


  PERCENT DISCREPANCY =             -0.09    PERCENT DISCREPANCY =             -0.01



1
 SUMMARY VOLUMETRIC BUDGET FOR GSFLOW 
 DATE: 12 16 1990              CUMULATIVE TIME STEP:      16
 MODFLOW STRESS PERIOD      4     CURRENT TIME STEP:      77     ITERATIONS:       5

 -----------------------------------------------------------------------------------

   CUMULATIVE VOLUMES               L**3   RATES FOR THIS TIME STEP           L**3/T
   ------------------                      ------------------------

                                     IN                                         IN
                                     --                                         --
        PRECIPITATION =        1804962.84          PRECIPITATION =                  
           STREAMFLOW =                               STREAMFLOW =                  
     GW BOUNDARY FLOW =                         GW BOUNDARY FLOW =                  


                                    OUT                                        OUT
                                    ---                                        ---
   EVAPOTRANSPIRATION =        1741273.19     EVAPOTRANSPIRATION =                  
           STREAMFLOW =         803056.29             STREAMFLOW =          11806.79
     GW BOUNDARY FLOW =           2787.01       GW BOUNDARY FLOW =             35.80

   INFLOWS - OUTFLOWS =        -742153.65     INFLOWS - OUTFLOWS =         -11842.59
             --------                                   --------

 TOTAL STORAGE CHANGE =        -739874.68         STORAGE CHANGE =         -11839.59
       --------------                             --------------
         LAND SURFACE =         187163.75           LAND SURFACE =                  
            SOIL ZONE =         244391.72              SOIL ZONE =             -6.75
     UNSATURATED ZONE =       -1953448.44       UNSATURATED ZONE =         -16772.79
       SATURATED ZONE =         782018.28         SATURATED ZONE =           4939.96

 OVERALL BUDGET ERROR =          -2278.96           BUDGET ERROR =             -3.00


  PERCENT DISCREPANCY =             -0.09    PERCENT DISCREPANCY =             -0.03



1
 SUMMARY VOLUMETRIC BUDGET FOR GSFLOW 
 DATE: 12 23 1990              CUMULATIVE TIME STEP:      23
 MODFLOW STRESS PERIOD      4     CURRENT TIME STEP:      84     ITERATIONS:       5

 -----------------------------------------------------------------------------------

   CUMULATIVE VOLUMES               L**3   RATES FOR THIS TIME STEP           L**3/T
   ------------------                      ------------------------

                                     IN                                         IN
                                     --                                         --
        PRECIPITATION =        2276236.55          PRECIPITATION =                  
           STREAMFLOW =                               STREAMFLOW =                  
     GW BOUNDARY FLOW =                         GW BOUNDARY FLOW =                  


                                    OUT                                        OUT
                                    ---                                        ---
   EVAPOTRANSPIRATION =        1742651.41     EVAPOTRANSPIRATION =                  
           STREAMFLOW =         885884.43             STREAMFLOW =          11852.17
     GW BOUNDARY FLOW =           3037.29       GW BOUNDARY FLOW =             35.72

   INFLOWS - OUTFLOWS =        -355336.58     INFLOWS - OUTFLOWS =         -11887.88
             --------                                   --------

 TOTAL STORAGE CHANGE =        -353029.35         STORAGE CHANGE =         -11883.19
       --------------                             --------------
         LAND SURFACE =         657066.96           LAND SURFACE =                  
            SOIL ZONE =         244715.69              SOIL ZONE =             77.97
     UNSATURATED ZONE =       -2068439.71       UNSATURATED ZONE =         -16166.64
       SATURATED ZONE =         813627.71         SATURATED ZONE =           4205.48

 OVERALL BUDGET ERROR =          -2307.23           BUDGET ERROR =             -4.70


  PERCENT DISCREPANCY =             -0.09    PERCENT DISCREPANCY =             -0.04



1
 SUMMARY VOLUMETRIC BUDGET FOR GSFLOW 
 DATE: 12 30 1990              CUMULATIVE TIME STEP:      30
 MODFLOW STRESS PERIOD      4     CURRENT TIME STEP:      91     ITERATIONS:       5

 -----------------------------------------------------------------------------------

   CUMULATIVE VOLUMES               L**3   RATES FOR THIS TIME STEP           L**3/T
   ------------------                      ------------------------

                                     IN                                         IN
                                     --                                         --
        PRECIPITATION =        2276236.55          PRECIPITATION =                  
           STREAMFLOW =                               STREAMFLOW =                  
     GW BOUNDARY FLOW =              0.03       GW BOUNDARY FLOW =              0.02


                                    OUT                                        OUT
                                    ---                                        ---
   EVAPOTRANSPIRATION =        1743404.28     EVAPOTRANSPIRATION =                  
           STREAMFLOW =         969009.23             STREAMFLOW =          11890.44
     GW BOUNDARY FLOW =           3287.78       GW BOUNDARY FLOW =             35.79

   INFLOWS - OUTFLOWS =        -439464.71     INFLOWS - OUTFLOWS =         -11926.21
             --------                                   --------

 TOTAL STORAGE CHANGE =        -437119.07         STORAGE CHANGE =         -11920.07
       --------------                             --------------
         LAND SURFACE =         656314.47           LAND SURFACE =                  
            SOIL ZONE =         245457.42              SOIL ZONE =            124.45
     UNSATURATED ZONE =       -2178913.52       UNSATURATED ZONE =         -15509.14
       SATURATED ZONE =         840022.57         SATURATED ZONE =           3464.61

 OVERALL BUDGET ERROR =          -2345.64           BUDGET ERROR =             -6.14


  PERCENT DISCREPANCY =             -0.09    PERCENT DISCREPANCY =             -0.05



1
 SUMMARY VOLUMETRIC BUDGET FOR GSFLOW 
 DATE: 01 06 1991              CUMULATIVE TIME STEP:       6
 MODFLOW STRESS PERIOD      5     CURRENT TIME STEP:      98     ITERATIONS:       5

 -----------------------------------------------------------------------------------

   CUMULATIVE VOLUMES               L**3   RATES FOR THIS TIME STEP           L**3/T
   ------------------                      ------------------------

                                     IN                                         IN
                                     --                                         --
        PRECIPITATION =        2276236.55          PRECIPITATION =                  
           STREAMFLOW =                               STREAMFLOW =                  
     GW BOUNDARY FLOW =              0.57       GW BOUNDARY FLOW =              0.12


                                    OUT                                        OUT
                                    ---                                        ---
   EVAPOTRANSPIRATION =        1766746.98     EVAPOTRANSPIRATION =           2588.73
           STREAMFLOW =        1052604.44             STREAMFLOW =          11978.57
     GW BOUNDARY FLOW =           3538.30       GW BOUNDARY FLOW =             35.79

   INFLOWS - OUTFLOWS =        -546652.60     INFLOWS - OUTFLOWS =         -14602.97
             --------                                   --------

 TOTAL STORAGE CHANGE =        -544257.85         STORAGE CHANGE =         -14595.16
       --------------                             --------------
         LAND SURFACE =         548041.05           LAND SURFACE =          -6127.39
            SOIL ZONE =         331307.94              SOIL ZONE =           3660.38
     UNSATURATED ZONE =       -2285159.04       UNSATURATED ZONE =         -14911.13
       SATURATED ZONE =         861552.20         SATURATED ZONE =           2782.99

 OVERALL BUDGET ERROR =          -2394.75           BUDGET ERROR =             -7.81


  PERCENT DISCREPANCY =             -0.08    PERCENT DISCREPANCY =             -0.05



1
 SUMMARY VOLUMETRIC BUDGET FOR GSFLOW 
 DATE: 01 13 1991              CUMULATIVE TIME STEP:      13
 MODFLOW STRESS PERIOD      5     CURRENT TIME STEP:     105     ITERATIONS:       6

 -----------------------------------------------------------------------------------

   CUMULATIVE VOLUMES               L**3   RATES FOR THIS TIME STEP           L**3/T
   ------------------                      ------------------------

                                     IN                                         IN
                                     --                                         --
        PRECIPITATION =        2596386.94          PRECIPITATION =          10327.43
           STREAMFLOW =                               STREAMFLOW =                  
     GW BOUNDARY FLOW =              1.76       GW BOUNDARY FLOW =              0.21


                                    OUT                                        OUT
                                    ---                                        ---
   EVAPOTRANSPIRATION =        1828830.12     EVAPOTRANSPIRATION =          18253.44
           STREAMFLOW =        1136658.72             STREAMFLOW =          11990.72
     GW BOUNDARY FLOW =           3788.78       GW BOUNDARY FLOW =             35.77

   INFLOWS - OUTFLOWS =        -372888.92     INFLOWS - OUTFLOWS =         -19952.29
             --------                                   --------

 TOTAL STORAGE CHANGE =        -370437.30         STORAGE CHANGE =         -19944.61
       --------------                             --------------
         LAND SURFACE =         512042.82           LAND SURFACE =        -134113.87
            SOIL ZONE =         629672.63              SOIL ZONE =         128758.90
     UNSATURATED ZONE =       -2389548.80       UNSATURATED ZONE =         -15946.53
       SATURATED ZONE =         877396.05         SATURATED ZONE =           1356.89

 OVERALL BUDGET ERROR =          -2451.62           BUDGET ERROR =             -7.68


  PERCENT DISCREPANCY =             -0.08    PERCENT DISCREPANCY =             -0.03



1
 SUMMARY VOLUMETRIC BUDGET FOR GSFLOW 
 DATE: 01 20 1991              CUMULATIVE TIME STEP:      20
 MODFLOW STRESS PERIOD      5     CURRENT TIME STEP:     112     ITERATIONS:       5

 -----------------------------------------------------------------------------------

   CUMULATIVE VOLUMES               L**3   RATES FOR THIS TIME STEP           L**3/T
   ------------------                      ------------------------

                                     IN                                         IN
                                     --                                         --
        PRECIPITATION =        2596386.94          PRECIPITATION =                  
           STREAMFLOW =                               STREAMFLOW =                  
     GW BOUNDARY FLOW =              3.57       GW BOUNDARY FLOW =              0.30


                                    OUT                                        OUT
                                    ---                                        ---
   EVAPOTRANSPIRATION =        1899266.41     EVAPOTRANSPIRATION =           1899.16
           STREAMFLOW =        1221692.89             STREAMFLOW =          12162.20
     GW BOUNDARY FLOW =           4039.29       GW BOUNDARY FLOW =             35.79

   INFLOWS - OUTFLOWS =        -528608.07     INFLOWS - OUTFLOWS =         -14096.85
             --------                                   --------

 TOTAL STORAGE CHANGE =        -526088.44         STORAGE CHANGE =         -14086.23
       --------------                             --------------
         LAND SURFACE =         353293.54           LAND SURFACE =           -254.70
            SOIL ZONE =         721821.08              SOIL ZONE =          -1495.42
     UNSATURATED ZONE =       -2490152.01       UNSATURATED ZONE =         -13834.65
       SATURATED ZONE =         888948.95         SATURATED ZONE =           1498.54

 OVERALL BUDGET ERROR =          -2519.63           BUDGET ERROR =            -10.62


  PERCENT DISCREPANCY =             -0.08    PERCENT DISCREPANCY =             -0.08



1
 SUMMARY VOLUMETRIC BUDGET FOR GSFLOW 
 DATE: 01 27 1991              CUMULATIVE TIME STEP:      27
 MODFLOW STRESS PERIOD      5     CURRENT TIME STEP:     119     ITERATIONS:       5

 -----------------------------------------------------------------------------------

   CUMULATIVE VOLUMES               L**3   RATES FOR THIS TIME STEP           L**3/T
   ------------------                      ------------------------

                                     IN                                         IN
                                     --                                         --
        PRECIPITATION =        2596386.94          PRECIPITATION =                  
           STREAMFLOW =                               STREAMFLOW =                  
     GW BOUNDARY FLOW =              5.98       GW BOUNDARY FLOW =              0.38


                                    OUT                                        OUT
                                    ---                                        ---
   EVAPOTRANSPIRATION =        1921679.02     EVAPOTRANSPIRATION =           1246.56
           STREAMFLOW =        1306826.77             STREAMFLOW =          12182.75
     GW BOUNDARY FLOW =           4289.77       GW BOUNDARY FLOW =             35.78

   INFLOWS - OUTFLOWS =        -636402.63     INFLOWS - OUTFLOWS =         -13464.71
             --------                                   --------

 TOTAL STORAGE CHANGE =        -633800.98         STORAGE CHANGE =         -13452.63
       --------------                             --------------
         LAND SURFACE =         325482.24           LAND SURFACE =            -73.52
            SOIL ZONE =         729698.99              SOIL ZONE =          -1055.50
     UNSATURATED ZONE =       -2585664.77       UNSATURATED ZONE =         -13239.32
       SATURATED ZONE =         896682.55         SATURATED ZONE =            915.72

 OVERALL BUDGET ERROR =          -2601.65           BUDGET ERROR =            -12.08


  PERCENT DISCREPANCY =             -0.08    PERCENT DISCREPANCY =             -0.09



1
 SUMMARY VOLUMETRIC BUDGET FOR GSFLOW 
 DATE: 02 03 1991              CUMULATIVE TIME STEP:       3
 MODFLOW STRESS PERIOD      6     CURRENT TIME STEP:     126     ITERATIONS:       6

 -----------------------------------------------------------------------------------

   CUMULATIVE VOLUMES               L**3   RATES FOR THIS TIME STEP           L**3/T
   ------------------                      ------------------------

                                     IN                                         IN
                                     --                                         --
        PRECIPITATION =        3228422.31          PRECIPITATION =          30459.53
           STREAMFLOW =                               STREAMFLOW =                  
     GW BOUNDARY FLOW =              8.97       GW BOUNDARY FLOW =              0.46


                                    OUT                                        OUT
                                    ---                                        ---
   EVAPOTRANSPIRATION =        2026983.78     EVAPOTRANSPIRATION =          20882.04
           STREAMFLOW =        1395569.42             STREAMFLOW =          13014.13
     GW BOUNDARY FLOW =           4540.28       GW BOUNDARY FLOW =             35.79

   INFLOWS - OUTFLOWS =        -198662.19     INFLOWS - OUTFLOWS =          -3471.96
             --------                                   --------

 TOTAL STORAGE CHANGE =        -195988.70         STORAGE CHANGE =          -3463.73
       --------------                             --------------
         LAND SURFACE =         146751.00           LAND SURFACE =         -24802.24
            SOIL ZONE =        1438238.40              SOIL ZONE =          33731.87
     UNSATURATED ZONE =       -2681044.24       UNSATURATED ZONE =         -12806.87
       SATURATED ZONE =         900066.14         SATURATED ZONE =            413.50

 OVERALL BUDGET ERROR =          -2673.49           BUDGET ERROR =             -8.23


  PERCENT DISCREPANCY =             -0.08    PERCENT DISCREPANCY =             -0.02



1
 SUMMARY VOLUMETRIC BUDGET FOR GSFLOW 
 DATE: 02 10 1991              CUMULATIVE TIME STEP:      10
 MODFLOW STRESS PERIOD      6     CURRENT TIME STEP:     133     ITERATIONS:       5

 -----------------------------------------------------------------------------------

   CUMULATIVE VOLUMES               L**3   RATES FOR THIS TIME STEP           L**3/T
   ------------------                      ------------------------

                                     IN                                         IN
                                     --                                         --
        PRECIPITATION =        3510173.01          PRECIPITATION =                  
           STREAMFLOW =                               STREAMFLOW =                  
     GW BOUNDARY FLOW =             12.50       GW BOUNDARY FLOW =              0.54


                                    OUT                                        OUT
                                    ---                                        ---
   EVAPOTRANSPIRATION =        2195100.19     EVAPOTRANSPIRATION =          26021.65
           STREAMFLOW =        1489711.19             STREAMFLOW =          13309.59
     GW BOUNDARY FLOW =           4790.70       GW BOUNDARY FLOW =             35.73

   INFLOWS - OUTFLOWS =        -179416.56     INFLOWS - OUTFLOWS =         -39366.44
             --------                                   --------

 TOTAL STORAGE CHANGE =        -176656.81         STORAGE CHANGE =         -39351.87
       --------------                             --------------
         LAND SURFACE =          63774.58           LAND SURFACE =         -10017.74
            SOIL ZONE =        1618287.24              SOIL ZONE =         -18019.17
     UNSATURATED ZONE =       -2760418.39       UNSATURATED ZONE =         -11232.45
       SATURATED ZONE =         901699.76         SATURATED ZONE =            -82.49

 OVERALL BUDGET ERROR =          -2759.75           BUDGET ERROR =            -14.57


  PERCENT DISCREPANCY =             -0.07    PERCENT DISCREPANCY =             -0.04



1
 SUMMARY VOLUMETRIC BUDGET FOR GSFLOW 
 DATE: 02 17 1991              CUMULATIVE TIME STEP:      17
 MODFLOW STRESS PERIOD      6     CURRENT TIME STEP:     140     ITERATIONS:       9

 -----------------------------------------------------------------------------------

   CUMULATIVE VOLUMES               L**3   RATES FOR THIS TIME STEP           L**3/T
   ------------------                      ------------------------

                                     IN                                         IN
                                     --                                         --
        PRECIPITATION =        3510173.01          PRECIPITATION =                  
           STREAMFLOW =                               STREAMFLOW =                  
     GW BOUNDARY FLOW =             16.54       GW BOUNDARY FLOW =              0.61


                                    OUT                                        OUT
                                    ---                                        ---
   EVAPOTRANSPIRATION =        2439354.16     EVAPOTRANSPIRATION =          23162.46
           STREAMFLOW =        1580743.63             STREAMFLOW =          12217.46
     GW BOUNDARY FLOW =           5040.42       GW BOUNDARY FLOW =             35.62

   INFLOWS - OUTFLOWS =        -514948.65     INFLOWS - OUTFLOWS =         -35414.93
             --------                                   --------

 TOTAL STORAGE CHANGE =        -512098.36         STORAGE CHANGE =         -35410.27
       --------------                             --------------
         LAND SURFACE =          10625.62           LAND SURFACE =          -1107.15
            SOIL ZONE =        1414953.71              SOIL ZONE =         -23760.78
     UNSATURATED ZONE =       -2837215.76       UNSATURATED ZONE =         -10672.13
       SATURATED ZONE =         899538.07         SATURATED ZONE =            129.78

 OVERALL BUDGET ERROR =          -2850.29           BUDGET ERROR =             -4.65


  PERCENT DISCREPANCY =             -0.07    PERCENT DISCREPANCY =             -0.01



1
 SUMMARY VOLUMETRIC BUDGET FOR GSFLOW 
 DATE: 02 24 1991              CUMULATIVE TIME STEP:      24
 MODFLOW STRESS PERIOD      6     CURRENT TIME STEP:     147     ITERATIONS:       5

 -----------------------------------------------------------------------------------

   CUMULATIVE VOLUMES               L**3   RATES FOR THIS TIME STEP           L**3/T
   ------------------                      ------------------------

                                     IN                                         IN
                                     --                                         --
        PRECIPITATION =        3510173.01          PRECIPITATION =                  
           STREAMFLOW =                               STREAMFLOW =                  
     GW BOUNDARY FLOW =             21.06       GW BOUNDARY FLOW =              0.67


                                    OUT                                        OUT
                                    ---                                        ---
   EVAPOTRANSPIRATION =        2632731.48     EVAPOTRANSPIRATION =          18050.88
           STREAMFLOW =        1667707.08             STREAMFLOW =          12248.52
     GW BOUNDARY FLOW =           5289.27       GW BOUNDARY FLOW =             35.50

   INFLOWS - OUTFLOWS =        -795533.76     INFLOWS - OUTFLOWS =         -30334.23
             --------                                   --------

 TOTAL STORAGE CHANGE =        -792600.43         STORAGE CHANGE =         -30316.81
       --------------                             --------------
         LAND SURFACE =           3951.44           LAND SURFACE =           -125.27
            SOIL ZONE =        1226166.98              SOIL ZONE =         -17583.97
     UNSATURATED ZONE =       -2911792.41       UNSATURATED ZONE =         -10645.87
       SATURATED ZONE =         889073.56         SATURATED ZONE =          -1961.69

 OVERALL BUDGET ERROR =          -2933.33           BUDGET ERROR =            -17.42


  PERCENT DISCREPANCY =             -0.07    PERCENT DISCREPANCY =             -0.06



1
 SUMMARY VOLUMETRIC BUDGET FOR GSFLOW 
 DATE: 03 03 1991              CUMULATIVE TIME STEP:       3
 MODFLOW STRESS PERIOD      7     CURRENT TIME STEP:     154     ITERATIONS:       7

 -----------------------------------------------------------------------------------

   CUMULATIVE VOLUMES               L**3   RATES FOR THIS TIME STEP           L**3/T
   ------------------                      ------------------------

                                     IN                                         IN
                                     --                                         --
        PRECIPITATION =        6220189.63          PRECIPITATION =        1243187.24
           STREAMFLOW =                               STREAMFLOW =                  
     GW BOUNDARY FLOW =             26.05       GW BOUNDARY FLOW =              0.74


                                    OUT                                        OUT
                                    ---                                        ---
   EVAPOTRANSPIRATION =        2761297.44     EVAPOTRANSPIRATION =           8684.25
           STREAMFLOW =        1755997.67             STREAMFLOW =          16685.89
     GW BOUNDARY FLOW =           5537.49       GW BOUNDARY FLOW =             35.54

   INFLOWS - OUTFLOWS =        1697383.08     INFLOWS - OUTFLOWS =        1217782.30
             --------                                   --------

 TOTAL STORAGE CHANGE =        1700384.69         STORAGE CHANGE =        1217788.38
       --------------                             --------------
         LAND SURFACE =        2158411.84           LAND SURFACE =         700230.69
            SOIL ZONE =        1654510.81              SOIL ZONE =         528561.81
     UNSATURATED ZONE =       -2986364.09       UNSATURATED ZONE =         -10032.99
       SATURATED ZONE =         873826.14         SATURATED ZONE =           -971.13

 OVERALL BUDGET ERROR =          -3001.61           BUDGET ERROR =             -6.08


  PERCENT DISCREPANCY =             -0.05    PERCENT DISCREPANCY =             -0.00



1
 SUMMARY VOLUMETRIC BUDGET FOR GSFLOW 
 DATE: 03 10 1991              CUMULATIVE TIME STEP:      10
 MODFLOW STRESS PERIOD      7     CURRENT TIME STEP:     161     ITERATIONS:       6

 -----------------------------------------------------------------------------------

   CUMULATIVE VOLUMES               L**3   RATES FOR THIS TIME STEP           L**3/T
   ------------------                      ------------------------

                                     IN                                         IN
                                     --                                         --
        PRECIPITATION =        8746030.42          PRECIPITATION =          32888.55
           STREAMFLOW =                               STREAMFLOW =                  
     GW BOUNDARY FLOW =             31.41       GW BOUNDARY FLOW =              0.79


                                    OUT                                        OUT
                                    ---                                        ---
   EVAPOTRANSPIRATION =        2815741.84     EVAPOTRANSPIRATION =           7495.75
           STREAMFLOW =        2806582.66             STREAMFLOW =          30254.87
     GW BOUNDARY FLOW =           5794.31       GW BOUNDARY FLOW =             35.73

   INFLOWS - OUTFLOWS =        3117943.02     INFLOWS - OUTFLOWS =          -4896.99
             --------                                   --------

 TOTAL STORAGE CHANGE =        3121013.74         STORAGE CHANGE =          -4886.84
       --------------                             --------------
         LAND SURFACE =        2235698.36           LAND SURFACE =          -4542.91
            SOIL ZONE =        3005941.78              SOIL ZONE =           1513.51
     UNSATURATED ZONE =       -2993748.90       UNSATURATED ZONE =           -881.48
       SATURATED ZONE =         873122.51         SATURATED ZONE =           -975.96

 OVERALL BUDGET ERROR =          -3070.72           BUDGET ERROR =            -10.16


  PERCENT DISCREPANCY =             -0.04    PERCENT DISCREPANCY =             -0.03



1
 SUMMARY VOLUMETRIC BUDGET FOR GSFLOW 
 DATE: 03 17 1991              CUMULATIVE TIME STEP:      17
 MODFLOW STRESS PERIOD      7     CURRENT TIME STEP:     168     ITERATIONS:       5

 -----------------------------------------------------------------------------------

   CUMULATIVE VOLUMES               L**3   RATES FOR THIS TIME STEP           L**3/T
   ------------------                      ------------------------

                                     IN                                         IN
                                     --                                         --
        PRECIPITATION =        9897129.71          PRECIPITATION =         157865.04
           STREAMFLOW =                               STREAMFLOW =                  
     GW BOUNDARY FLOW =             37.22       GW BOUNDARY FLOW =              0.86


                                    OUT                                        OUT
                                    ---                                        ---
   EVAPOTRANSPIRATION =        2839025.14     EVAPOTRANSPIRATION =           6965.16
           STREAMFLOW =        3000298.15             STREAMFLOW =          27443.75
     GW BOUNDARY FLOW =           6043.47       GW BOUNDARY FLOW =             35.52

   INFLOWS - OUTFLOWS =        4051800.17     INFLOWS - OUTFLOWS =         123421.47
             --------                                   --------

 TOTAL STORAGE CHANGE =        4054980.77         STORAGE CHANGE =         123440.23
       --------------                             --------------
         LAND SURFACE =        3338153.20           LAND SURFACE =         123394.04
            SOIL ZONE =        2855292.85              SOIL ZONE =           3730.39
     UNSATURATED ZONE =       -3003257.28       UNSATURATED ZONE =          -2185.73
       SATURATED ZONE =         864792.00         SATURATED ZONE =          -1498.47

 OVERALL BUDGET ERROR =          -3180.61           BUDGET ERROR =            -18.76


  PERCENT DISCREPANCY =             -0.03    PERCENT DISCREPANCY =             -0.01



1
 SUMMARY VOLUMETRIC BUDGET FOR GSFLOW 
 DATE: 03 24 1991              CUMULATIVE TIME STEP:      24
 MODFLOW STRESS PERIOD      7     CURRENT TIME STEP:     175     ITERATIONS:       6

 -----------------------------------------------------------------------------------

   CUMULATIVE VOLUMES               L**3   RATES FOR THIS TIME STEP           L**3/T
   ------------------                      ------------------------

                                     IN                                         IN
                                     --                                         --
        PRECIPITATION =        1.1673D+07          PRECIPITATION =        1230031.83
           STREAMFLOW =                               STREAMFLOW =                  
     GW BOUNDARY FLOW =             43.44       GW BOUNDARY FLOW =              0.91


                                    OUT                                        OUT
                                    ---                                        ---
   EVAPOTRANSPIRATION =        2872396.53     EVAPOTRANSPIRATION =           3932.45
           STREAMFLOW =        3181927.05             STREAMFLOW =          25474.67
     GW BOUNDARY FLOW =           6291.34       GW BOUNDARY FLOW =             35.34

   INFLOWS - OUTFLOWS =        5612540.03     INFLOWS - OUTFLOWS =        1200590.28
             --------                                   --------

 TOTAL STORAGE CHANGE =        5615816.76         STORAGE CHANGE =        1200599.78
       --------------                             --------------
         LAND SURFACE =        5073781.79           LAND SURFACE =        1227482.51
            SOIL ZONE =        2709035.99              SOIL ZONE =         -22173.10
     UNSATURATED ZONE =       -3021185.33       UNSATURATED ZONE =          -2881.24
       SATURATED ZONE =         854184.31         SATURATED ZONE =          -1828.40

 OVERALL BUDGET ERROR =          -3276.73           BUDGET ERROR =             -9.49


  PERCENT DISCREPANCY =             -0.03    PERCENT DISCREPANCY =             -0.00



1
 SUMMARY VOLUMETRIC BUDGET FOR GSFLOW 
 DATE: 03 31 1991              CUMULATIVE TIME STEP:      31
 MODFLOW STRESS PERIOD      7     CURRENT TIME STEP:     182     ITERATIONS:       6

 -----------------------------------------------------------------------------------

   CUMULATIVE VOLUMES               L**3   RATES FOR THIS TIME STEP           L**3/T
   ------------------                      ------------------------

                                     IN                                         IN
                                     --                                         --
        PRECIPITATION =        1.2495D+07          PRECIPITATION =                  
           STREAMFLOW =                               STREAMFLOW =                  
     GW BOUNDARY FLOW =             50.06       GW BOUNDARY FLOW =              0.97


                                    OUT                                        OUT
                                    ---                                        ---
   EVAPOTRANSPIRATION =        2980271.98     EVAPOTRANSPIRATION =          44629.87
           STREAMFLOW =        3362940.02             STREAMFLOW =          30119.98
     GW BOUNDARY FLOW =           6538.26       GW BOUNDARY FLOW =             35.30

   INFLOWS - OUTFLOWS =        6145625.10     INFLOWS - OUTFLOWS =         -74784.18
             --------                                   --------

 TOTAL STORAGE CHANGE =        6149003.55         STORAGE CHANGE =         -74774.50
       --------------                             --------------
         LAND SURFACE =        5647574.86           LAND SURFACE =        -132565.95
            SOIL ZONE =        2703536.36              SOIL ZONE =          63294.82
     UNSATURATED ZONE =       -3041692.69       UNSATURATED ZONE =          -3180.96
       SATURATED ZONE =         839585.03         SATURATED ZONE =          -2322.41

 OVERALL BUDGET ERROR =          -3378.45           BUDGET ERROR =             -9.68


  PERCENT DISCREPANCY =             -0.03    PERCENT DISCREPANCY =             -0.01



1
 SUMMARY VOLUMETRIC BUDGET FOR GSFLOW 
 DATE: 04 07 1991              CUMULATIVE TIME STEP:       7
 MODFLOW STRESS PERIOD      8     CURRENT TIME STEP:     189     ITERATIONS:       7

 -----------------------------------------------------------------------------------

   CUMULATIVE VOLUMES               L**3   RATES FOR THIS TIME STEP           L**3/T
   ------------------                      ------------------------

                                     IN                                         IN
                                     --                                         --
        PRECIPITATION =        1.3018D+07          PRECIPITATION =                  
           STREAMFLOW =                               STREAMFLOW =                  
     GW BOUNDARY FLOW =             57.05       GW BOUNDARY FLOW =              1.02


                                    OUT                                        OUT
                                    ---                                        ---
   EVAPOTRANSPIRATION =        3267507.00     EVAPOTRANSPIRATION =          13551.15
           STREAMFLOW =        3757995.57             STREAMFLOW =          73434.74
     GW BOUNDARY FLOW =           6787.61       GW BOUNDARY FLOW =             35.84

   INFLOWS - OUTFLOWS =        5985503.60     INFLOWS - OUTFLOWS =         -87020.72
             --------                                   --------

 TOTAL STORAGE CHANGE =        5988940.59         STORAGE CHANGE =         -87015.69
       --------------                             --------------
         LAND SURFACE =        4116185.85           LAND SURFACE =         -56924.70
            SOIL ZONE =        4070428.49              SOIL ZONE =         -37300.48
     UNSATURATED ZONE =       -3023933.47       UNSATURATED ZONE =           8688.53
       SATURATED ZONE =         826259.73         SATURATED ZONE =          -1479.04

 OVERALL BUDGET ERROR =          -3436.99           BUDGET ERROR =             -5.03


  PERCENT DISCREPANCY =             -0.03    PERCENT DISCREPANCY =             -0.01



1
 SUMMARY VOLUMETRIC BUDGET FOR GSFLOW 
 DATE: 04 14 1991              CUMULATIVE TIME STEP:      14
 MODFLOW STRESS PERIOD      8     CURRENT TIME STEP:     196     ITERATIONS:       6

 -----------------------------------------------------------------------------------

   CUMULATIVE VOLUMES               L**3   RATES FOR THIS TIME STEP           L**3/T
   ------------------                      ------------------------

                                     IN                                         IN
                                     --                                         --
        PRECIPITATION =        1.3018D+07          PRECIPITATION =                  
           STREAMFLOW =                               STREAMFLOW =                  
     GW BOUNDARY FLOW =             64.36       GW BOUNDARY FLOW =              1.06


                                    OUT                                        OUT
                                    ---                                        ---
   EVAPOTRANSPIRATION =        3437435.74     EVAPOTRANSPIRATION =          38955.66
           STREAMFLOW =        4287648.43             STREAMFLOW =          76566.02
     GW BOUNDARY FLOW =           7038.09       GW BOUNDARY FLOW =             35.74

   INFLOWS - OUTFLOWS =        5285678.83     INFLOWS - OUTFLOWS =        -115556.35
             --------                                   --------

 TOTAL STORAGE CHANGE =        5289149.51         STORAGE CHANGE =        -115550.60
       --------------                             --------------
         LAND SURFACE =        3541064.90           LAND SURFACE =        -164763.05
            SOIL ZONE =        3900166.29              SOIL ZONE =          43430.19
     UNSATURATED ZONE =       -2969458.30       UNSATURATED ZONE =           6912.73
       SATURATED ZONE =         817376.62         SATURATED ZONE =          -1130.47

 OVERALL BUDGET ERROR =          -3470.67           BUDGET ERROR =             -5.75


  PERCENT DISCREPANCY =             -0.03    PERCENT DISCREPANCY =             -0.00



1
 SUMMARY VOLUMETRIC BUDGET FOR GSFLOW 
 DATE: 04 21 1991              CUMULATIVE TIME STEP:      21
 MODFLOW STRESS PERIOD      8     CURRENT TIME STEP:     203     ITERATIONS:       6

 -----------------------------------------------------------------------------------

   CUMULATIVE VOLUMES               L**3   RATES FOR THIS TIME STEP           L**3/T
   ------------------                      ------------------------

                                     IN                                         IN
                                     --                                         --
        PRECIPITATION =        1.3034D+07          PRECIPITATION =                  
           STREAMFLOW =                               STREAMFLOW =                  
     GW BOUNDARY FLOW =             71.97       GW BOUNDARY FLOW =              1.11


                                    OUT                                        OUT
                                    ---                                        ---
   EVAPOTRANSPIRATION =        3669237.59     EVAPOTRANSPIRATION =          43459.74
           STREAMFLOW =        4834762.65             STREAMFLOW =          86200.10
     GW BOUNDARY FLOW =           7287.82       GW BOUNDARY FLOW =             35.73

   INFLOWS - OUTFLOWS =        4522846.01     INFLOWS - OUTFLOWS =        -129694.46
             --------                                   --------

 TOTAL STORAGE CHANGE =        4526354.03         STORAGE CHANGE =        -129689.69
       --------------                             --------------
         LAND SURFACE =        2543045.12           LAND SURFACE =        -194564.53
            SOIL ZONE =        4093129.76              SOIL ZONE =          57488.11
     UNSATURATED ZONE =       -2919403.13       UNSATURATED ZONE =           8355.65
       SATURATED ZONE =         809582.28         SATURATED ZONE =           -968.92

 OVERALL BUDGET ERROR =          -3508.02           BUDGET ERROR =             -4.77


  PERCENT DISCREPANCY =             -0.03    PERCENT DISCREPANCY =             -0.00



1
 SUMMARY VOLUMETRIC BUDGET FOR GSFLOW 
 DATE: 04 28 1991              CUMULATIVE TIME STEP:      28
 MODFLOW STRESS PERIOD      8     CURRENT TIME STEP:     210     ITERATIONS:       6

 -----------------------------------------------------------------------------------

   CUMULATIVE VOLUMES               L**3   RATES FOR THIS TIME STEP           L**3/T
   ------------------                      ------------------------

                                     IN                                         IN
                                     --                                         --
        PRECIPITATION =        1.3303D+07          PRECIPITATION =                  
           STREAMFLOW =                               STREAMFLOW =                  
     GW BOUNDARY FLOW =             79.88       GW BOUNDARY FLOW =              1.15


                                    OUT                                        OUT
                                    ---                                        ---
   EVAPOTRANSPIRATION =        3916195.65     EVAPOTRANSPIRATION =          55283.23
           STREAMFLOW =        5428054.93             STREAMFLOW =          80398.51
     GW BOUNDARY FLOW =           7537.22       GW BOUNDARY FLOW =             35.51

   INFLOWS - OUTFLOWS =        3951722.58     INFLOWS - OUTFLOWS =        -135716.10
             --------                                   --------

 TOTAL STORAGE CHANGE =        3955259.45         STORAGE CHANGE =        -135711.92
       --------------                             --------------
         LAND SURFACE =        1984438.95           LAND SURFACE =        -101605.36
            SOIL ZONE =        4028537.58              SOIL ZONE =         -40693.54
     UNSATURATED ZONE =       -2860897.47       UNSATURATED ZONE =           7580.51
       SATURATED ZONE =         803180.39         SATURATED ZONE =           -993.53

 OVERALL BUDGET ERROR =          -3536.87           BUDGET ERROR =             -4.18


  PERCENT DISCREPANCY =             -0.03    PERCENT DISCREPANCY =             -0.00



1
 SUMMARY VOLUMETRIC BUDGET FOR GSFLOW 
 DATE: 05 05 1991              CUMULATIVE TIME STEP:       5
 MODFLOW STRESS PERIOD      9     CURRENT TIME STEP:     217     ITERATIONS:       6

 -----------------------------------------------------------------------------------

   CUMULATIVE VOLUMES               L**3   RATES FOR THIS TIME STEP           L**3/T
   ------------------                      ------------------------

                                     IN                                         IN
                                     --                                         --
        PRECIPITATION =        1.3510D+07          PRECIPITATION =                  
           STREAMFLOW =                               STREAMFLOW =                  
     GW BOUNDARY FLOW =             88.09       GW BOUNDARY FLOW =              1.19


                                    OUT                                        OUT
                                    ---                                        ---
   EVAPOTRANSPIRATION =        4265265.21     EVAPOTRANSPIRATION =          84817.23
           STREAMFLOW =        5943859.29             STREAMFLOW =          73173.59
     GW BOUNDARY FLOW =           7784.59       GW BOUNDARY FLOW =             35.27

   INFLOWS - OUTFLOWS =        3292887.14     INFLOWS - OUTFLOWS =        -158024.90
             --------                                   --------

 TOTAL STORAGE CHANGE =        3296451.89         STORAGE CHANGE =        -158020.09
       --------------                             --------------
         LAND SURFACE =        1439559.50           LAND SURFACE =        -143167.48
            SOIL ZONE =        3876218.64              SOIL ZONE =         -20221.91
     UNSATURATED ZONE =       -2815902.11       UNSATURATED ZONE =           6494.94
       SATURATED ZONE =         796575.86         SATURATED ZONE =          -1125.64

 OVERALL BUDGET ERROR =          -3564.75           BUDGET ERROR =             -4.81


  PERCENT DISCREPANCY =             -0.03    PERCENT DISCREPANCY =             -0.00



1
 SUMMARY VOLUMETRIC BUDGET FOR GSFLOW 
 DATE: 05 12 1991              CUMULATIVE TIME STEP:      12
 MODFLOW STRESS PERIOD      9     CURRENT TIME STEP:     224     ITERATIONS:       7

 -----------------------------------------------------------------------------------

   CUMULATIVE VOLUMES               L**3   RATES FOR THIS TIME STEP           L**3/T
   ------------------                      ------------------------

                                     IN                                         IN
                                     --                                         --
        PRECIPITATION =        1.4029D+07          PRECIPITATION =                  
           STREAMFLOW =                               STREAMFLOW =                  
     GW BOUNDARY FLOW =             96.61       GW BOUNDARY FLOW =              1.24


                                    OUT                                        OUT
                                    ---                                        ---
   EVAPOTRANSPIRATION =        4635194.16     EVAPOTRANSPIRATION =          62594.93
           STREAMFLOW =        6457933.23             STREAMFLOW =          69374.65
     GW BOUNDARY FLOW =           8030.97       GW BOUNDARY FLOW =             35.08

   INFLOWS - OUTFLOWS =        2928160.41     INFLOWS - OUTFLOWS =        -132003.43
             --------                                   --------

 TOTAL STORAGE CHANGE =        2931751.10         STORAGE CHANGE =        -132001.23
       --------------                             --------------
         LAND SURFACE =        1030352.66           LAND SURFACE =         -87726.30
            SOIL ZONE =        3883928.52              SOIL ZONE =         -48932.95
     UNSATURATED ZONE =       -2771454.08       UNSATURATED ZONE =           5737.78
       SATURATED ZONE =         788924.00         SATURATED ZONE =          -1079.77

 OVERALL BUDGET ERROR =          -3590.69           BUDGET ERROR =             -2.19


  PERCENT DISCREPANCY =             -0.03    PERCENT DISCREPANCY =             -0.00



1
 SUMMARY VOLUMETRIC BUDGET FOR GSFLOW 
 DATE: 05 19 1991              CUMULATIVE TIME STEP:      19
 MODFLOW STRESS PERIOD      9     CURRENT TIME STEP:     231     ITERATIONS:       6

 -----------------------------------------------------------------------------------

   CUMULATIVE VOLUMES               L**3   RATES FOR THIS TIME STEP           L**3/T
   ------------------                      ------------------------

                                     IN                                         IN
                                     --                                         --
        PRECIPITATION =        1.4365D+07          PRECIPITATION =                  
           STREAMFLOW =                               STREAMFLOW =                  
     GW BOUNDARY FLOW =            105.43       GW BOUNDARY FLOW =              1.28


                                    OUT                                        OUT
                                    ---                                        ---
   EVAPOTRANSPIRATION =        5035303.00     EVAPOTRANSPIRATION =          17977.42
           STREAMFLOW =        6913891.69             STREAMFLOW =          58467.88
     GW BOUNDARY FLOW =           8275.59       GW BOUNDARY FLOW =             34.79

   INFLOWS - OUTFLOWS =        2408013.45     INFLOWS - OUTFLOWS =         -76478.81
             --------                                   --------

 TOTAL STORAGE CHANGE =        2411622.64         STORAGE CHANGE =         -76474.79
       --------------                             --------------
         LAND SURFACE =         662766.11           LAND SURFACE =         -31363.89
            SOIL ZONE =        3704598.52              SOIL ZONE =         -47737.59
     UNSATURATED ZONE =       -2736673.75       UNSATURATED ZONE =           3961.38
       SATURATED ZONE =         780931.76         SATURATED ZONE =          -1334.69

 OVERALL BUDGET ERROR =          -3609.19           BUDGET ERROR =             -4.02


  PERCENT DISCREPANCY =             -0.03    PERCENT DISCREPANCY =             -0.01



1
 SUMMARY VOLUMETRIC BUDGET FOR GSFLOW 
 DATE: 05 26 1991              CUMULATIVE TIME STEP:      26
 MODFLOW STRESS PERIOD      9     CURRENT TIME STEP:     238     ITERATIONS:       6

 -----------------------------------------------------------------------------------

   CUMULATIVE VOLUMES               L**3   RATES FOR THIS TIME STEP           L**3/T
   ------------------                      ------------------------

                                     IN                                         IN
                                     --                                         --
        PRECIPITATION =        1.4426D+07          PRECIPITATION =                  
           STREAMFLOW =                               STREAMFLOW =                  
     GW BOUNDARY FLOW =            114.55       GW BOUNDARY FLOW =              1.32


                                    OUT                                        OUT
                                    ---                                        ---
   EVAPOTRANSPIRATION =        5682658.39     EVAPOTRANSPIRATION =          71093.69
           STREAMFLOW =        7274234.27             STREAMFLOW =          40578.41
     GW BOUNDARY FLOW =           8517.87       GW BOUNDARY FLOW =             34.38

   INFLOWS - OUTFLOWS =        1461201.63     INFLOWS - OUTFLOWS =        -111705.15
             --------                                   --------

 TOTAL STORAGE CHANGE =        1464841.61         STORAGE CHANGE =        -111699.99
       --------------                             --------------
         LAND SURFACE =         302990.54           LAND SURFACE =         -22298.68
            SOIL ZONE =        3111367.40              SOIL ZONE =         -87692.49
     UNSATURATED ZONE =       -2719481.78       UNSATURATED ZONE =            165.86
       SATURATED ZONE =         769965.45         SATURATED ZONE =          -1874.68

 OVERALL BUDGET ERROR =          -3639.98           BUDGET ERROR =             -5.16


  PERCENT DISCREPANCY =             -0.03    PERCENT DISCREPANCY =             -0.00



1
 SUMMARY VOLUMETRIC BUDGET FOR GSFLOW 
 DATE: 06 02 1991              CUMULATIVE TIME STEP:       2
 MODFLOW STRESS PERIOD     10     CURRENT TIME STEP:     245     ITERATIONS:       7

 -----------------------------------------------------------------------------------

   CUMULATIVE VOLUMES               L**3   RATES FOR THIS TIME STEP           L**3/T
   ------------------                      ------------------------

                                     IN                                         IN
                                     --                                         --
        PRECIPITATION =        1.4671D+07          PRECIPITATION =                  
           STREAMFLOW =                               STREAMFLOW =                  
     GW BOUNDARY FLOW =            123.98       GW BOUNDARY FLOW =              1.37


                                    OUT                                        OUT
                                    ---                                        ---
   EVAPOTRANSPIRATION =        6227605.05     EVAPOTRANSPIRATION =         119396.93
           STREAMFLOW =        7531055.93             STREAMFLOW =          33283.36
     GW BOUNDARY FLOW =           8757.45       GW BOUNDARY FLOW =             34.10

   INFLOWS - OUTFLOWS =         903680.34     INFLOWS - OUTFLOWS =        -152713.02
             --------                                   --------

 TOTAL STORAGE CHANGE =         907358.54         STORAGE CHANGE =        -152709.07
       --------------                             --------------
         LAND SURFACE =         169106.39           LAND SURFACE =         -22264.60
            SOIL ZONE =        2711146.07              SOIL ZONE =        -126251.36
     UNSATURATED ZONE =       -2728057.58       UNSATURATED ZONE =          -1942.16
       SATURATED ZONE =         755163.66         SATURATED ZONE =          -2250.95

 OVERALL BUDGET ERROR =          -3678.19           BUDGET ERROR =             -3.94


  PERCENT DISCREPANCY =             -0.03    PERCENT DISCREPANCY =             -0.00



1
 SUMMARY VOLUMETRIC BUDGET FOR GSFLOW 
 DATE: 06 09 1991              CUMULATIVE TIME STEP:       9
 MODFLOW STRESS PERIOD     10     CURRENT TIME STEP:     252     ITERATIONS:       6

 -----------------------------------------------------------------------------------

   CUMULATIVE VOLUMES               L**3   RATES FOR THIS TIME STEP           L**3/T
   ------------------                      ------------------------

                                     IN                                         IN
                                     --                                         --
        PRECIPITATION =        1.4671D+07          PRECIPITATION =                  
           STREAMFLOW =                               STREAMFLOW =                  
     GW BOUNDARY FLOW =            133.72       GW BOUNDARY FLOW =              1.41


                                    OUT                                        OUT
                                    ---                                        ---
   EVAPOTRANSPIRATION =        6944014.77     EVAPOTRANSPIRATION =         166531.68
           STREAMFLOW =        7721531.79             STREAMFLOW =          23341.05
     GW BOUNDARY FLOW =           8994.52       GW BOUNDARY FLOW =             33.59

   INFLOWS - OUTFLOWS =          -3432.56     INFLOWS - OUTFLOWS =        -189904.91
             --------                                   --------

 TOTAL STORAGE CHANGE =            290.87         STORAGE CHANGE =        -189895.18
       --------------                             --------------
         LAND SURFACE =          68454.54           LAND SURFACE =         -17093.58
            SOIL ZONE =        1950517.90              SOIL ZONE =        -164814.92
     UNSATURATED ZONE =       -2754261.69       UNSATURATED ZONE =          -4850.18
       SATURATED ZONE =         735580.12         SATURATED ZONE =          -3136.49

 OVERALL BUDGET ERROR =          -3723.43           BUDGET ERROR =             -9.73


  PERCENT DISCREPANCY =             -0.03    PERCENT DISCREPANCY =             -0.01



1
 SUMMARY VOLUMETRIC BUDGET FOR GSFLOW 
 DATE: 06 16 1991              CUMULATIVE TIME STEP:      16
 MODFLOW STRESS PERIOD     10     CURRENT TIME STEP:     259     ITERATIONS:       6

 -----------------------------------------------------------------------------------

   CUMULATIVE VOLUMES               L**3   RATES FOR THIS TIME STEP           L**3/T
   ------------------                      ------------------------

                                     IN                                         IN
                                     --                                         --
        PRECIPITATION =        1.4671D+07          PRECIPITATION =                  
           STREAMFLOW =                               STREAMFLOW =                  
     GW BOUNDARY FLOW =            143.79       GW BOUNDARY FLOW =              1.46


                                    OUT                                        OUT
                                    ---                                        ---
   EVAPOTRANSPIRATION =        7901276.38     EVAPOTRANSPIRATION =         107643.36
           STREAMFLOW =        7844815.46             STREAMFLOW =          15269.43
     GW BOUNDARY FLOW =           9228.00       GW BOUNDARY FLOW =             33.23

   INFLOWS - OUTFLOWS =       -1084201.25     INFLOWS - OUTFLOWS =        -122944.57
             --------                                   --------

 TOTAL STORAGE CHANGE =       -1080399.84         STORAGE CHANGE =        -122933.54
       --------------                             --------------
         LAND SURFACE =          13034.12           LAND SURFACE =          -3379.12
            SOIL ZONE =        1022345.80              SOIL ZONE =        -101495.38
     UNSATURATED ZONE =       -2823735.34       UNSATURATED ZONE =         -13483.40
       SATURATED ZONE =         707955.58         SATURATED ZONE =          -4575.64

 OVERALL BUDGET ERROR =          -3801.41           BUDGET ERROR =            -11.02


  PERCENT DISCREPANCY =             -0.02    PERCENT DISCREPANCY =             -0.01



1
 SUMMARY VOLUMETRIC BUDGET FOR GSFLOW 
 DATE: 06 23 1991              CUMULATIVE TIME STEP:      23
 MODFLOW STRESS PERIOD     10     CURRENT TIME STEP:     266     ITERATIONS:       6

 -----------------------------------------------------------------------------------

   CUMULATIVE VOLUMES               L**3   RATES FOR THIS TIME STEP           L**3/T
   ------------------                      ------------------------

                                     IN                                         IN
                                     --                                         --
        PRECIPITATION =        1.4671D+07          PRECIPITATION =                  
           STREAMFLOW =                               STREAMFLOW =                  
     GW BOUNDARY FLOW =            154.17       GW BOUNDARY FLOW =              1.50


                                    OUT                                        OUT
                                    ---                                        ---
   EVAPOTRANSPIRATION =        8372299.53     EVAPOTRANSPIRATION =          33536.13
           STREAMFLOW =        7943804.51             STREAMFLOW =          14030.40
     GW BOUNDARY FLOW =           9459.94       GW BOUNDARY FLOW =             33.10

   INFLOWS - OUTFLOWS =       -1654434.99     INFLOWS - OUTFLOWS =         -47598.13
             --------                                   --------

 TOTAL STORAGE CHANGE =       -1650554.37         STORAGE CHANGE =         -47586.42
       --------------                             --------------
         LAND SURFACE =           2902.65           LAND SURFACE =           -609.49
            SOIL ZONE =         589611.13              SOIL ZONE =         -31018.87
     UNSATURATED ZONE =       -2913533.02       UNSATURATED ZONE =         -10572.21
       SATURATED ZONE =         670464.88         SATURATED ZONE =          -5385.85

 OVERALL BUDGET ERROR =          -3880.62           BUDGET ERROR =            -11.71


  PERCENT DISCREPANCY =             -0.02    PERCENT DISCREPANCY =             -0.02



1
 SUMMARY VOLUMETRIC BUDGET FOR GSFLOW 
 DATE: 06 30 1991              CUMULATIVE TIME STEP:      30
 MODFLOW STRESS PERIOD     10     CURRENT TIME STEP:     273     ITERATIONS:       6

 -----------------------------------------------------------------------------------

   CUMULATIVE VOLUMES               L**3   RATES FOR THIS TIME STEP           L**3/T
   ------------------                      ------------------------

                                     IN                                         IN
[...]
                                    ---                                        ---
   EVAPOTRANSPIRATION =        7.2811D+07     EVAPOTRANSPIRATION =          78477.34
           STREAMFLOW =        7.3073D+07             STREAMFLOW =          11593.23
     GW BOUNDARY FLOW =          51150.63       GW BOUNDARY FLOW =             24.30

   INFLOWS - OUTFLOWS =       -1.2421D+07     INFLOWS - OUTFLOWS =         -90091.21
             --------                                   --------

 TOTAL STORAGE CHANGE =       -1.2413D+07         STORAGE CHANGE =         -90101.83
       --------------                             --------------
         LAND SURFACE =         441990.80           LAND SURFACE =         -21191.99
            SOIL ZONE =         165423.72              SOIL ZONE =         -53794.48
     UNSATURATED ZONE =          50854.61       UNSATURATED ZONE =          -9135.28
       SATURATED ZONE =       -1.3071D+07         SATURATED ZONE =          -5980.08

 OVERALL BUDGET ERROR =          -8401.52           BUDGET ERROR =             10.61


  PERCENT DISCREPANCY =             -0.01    PERCENT DISCREPANCY =              0.01



1
 SUMMARY VOLUMETRIC BUDGET FOR GSFLOW 
 DATE: 09 03 1995              CUMULATIVE TIME STEP:       3
 MODFLOW STRESS PERIOD     61     CURRENT TIME STEP:    1799     ITERATIONS:       7

 -----------------------------------------------------------------------------------

   CUMULATIVE VOLUMES               L**3   RATES FOR THIS TIME STEP           L**3/T
   ------------------                      ------------------------

                                     IN                                         IN
                                     --                                         --
        PRECIPITATION =        1.3351D+08          PRECIPITATION =                  
           STREAMFLOW =                               STREAMFLOW =                  
     GW BOUNDARY FLOW =           5597.60       GW BOUNDARY FLOW =              3.74


                                    OUT                                        OUT
                                    ---                                        ---
   EVAPOTRANSPIRATION =        7.3342D+07     EVAPOTRANSPIRATION =          71371.14
           STREAMFLOW =        7.3145D+07             STREAMFLOW =           9271.09
     GW BOUNDARY FLOW =          51320.22       GW BOUNDARY FLOW =             24.18

   INFLOWS - OUTFLOWS =       -1.3023D+07     INFLOWS - OUTFLOWS =         -80662.67
             --------                                   --------

 TOTAL STORAGE CHANGE =       -1.3015D+07         STORAGE CHANGE =         -80671.71
       --------------                             --------------
         LAND SURFACE =         310808.28           LAND SURFACE =         -16845.20
            SOIL ZONE =        -193895.75              SOIL ZONE =         -47339.33
     UNSATURATED ZONE =         -13013.75       UNSATURATED ZONE =          -9350.62
       SATURATED ZONE =       -1.3119D+07         SATURATED ZONE =          -7136.56

 OVERALL BUDGET ERROR =          -8337.39           BUDGET ERROR =              9.04


  PERCENT DISCREPANCY =             -0.01    PERCENT DISCREPANCY =              0.01



1
 SUMMARY VOLUMETRIC BUDGET FOR GSFLOW 
 DATE: 09 10 1995              CUMULATIVE TIME STEP:      10
 MODFLOW STRESS PERIOD     61     CURRENT TIME STEP:    1806     ITERATIONS:       6

 -----------------------------------------------------------------------------------

   CUMULATIVE VOLUMES               L**3   RATES FOR THIS TIME STEP           L**3/T
   ------------------                      ------------------------

                                     IN                                         IN
                                     --                                         --
        PRECIPITATION =        1.3351D+08          PRECIPITATION =                  
           STREAMFLOW =                               STREAMFLOW =                  
     GW BOUNDARY FLOW =           5624.05       GW BOUNDARY FLOW =              3.81


                                    OUT                                        OUT
                                    ---                                        ---
   EVAPOTRANSPIRATION =        7.3744D+07     EVAPOTRANSPIRATION =          53872.47
           STREAMFLOW =        7.3207D+07             STREAMFLOW =           8571.52
     GW BOUNDARY FLOW =          51489.48       GW BOUNDARY FLOW =             24.16

   INFLOWS - OUTFLOWS =       -1.3489D+07     INFLOWS - OUTFLOWS =         -62464.34
             --------                                   --------

 TOTAL STORAGE CHANGE =       -1.3481D+07         STORAGE CHANGE =         -62476.75
       --------------                             --------------
         LAND SURFACE =         223260.41           LAND SURFACE =         -10856.31
            SOIL ZONE =        -462201.35              SOIL ZONE =         -35784.13
     UNSATURATED ZONE =         -76909.38       UNSATURATED ZONE =          -8977.57
       SATURATED ZONE =       -1.3165D+07         SATURATED ZONE =          -6858.75

 OVERALL BUDGET ERROR =          -8277.53           BUDGET ERROR =             12.41


  PERCENT DISCREPANCY =             -0.01    PERCENT DISCREPANCY =              0.02



1
 SUMMARY VOLUMETRIC BUDGET FOR GSFLOW 
 DATE: 09 17 1995              CUMULATIVE TIME STEP:      17
 MODFLOW STRESS PERIOD     61     CURRENT TIME STEP:    1813     ITERATIONS:       7

 -----------------------------------------------------------------------------------

   CUMULATIVE VOLUMES               L**3   RATES FOR THIS TIME STEP           L**3/T
   ------------------                      ------------------------

                                     IN                                         IN
                                     --                                         --
        PRECIPITATION =        1.3351D+08          PRECIPITATION =                  
           STREAMFLOW =                               STREAMFLOW =                  
     GW BOUNDARY FLOW =           5651.02       GW BOUNDARY FLOW =              3.88


                                    OUT                                        OUT
                                    ---                                        ---
   EVAPOTRANSPIRATION =        7.4183D+07     EVAPOTRANSPIRATION =          50397.58
           STREAMFLOW =        7.3258D+07             STREAMFLOW =           7223.41
     GW BOUNDARY FLOW =          51657.82       GW BOUNDARY FLOW =             24.06

   INFLOWS - OUTFLOWS =       -1.3978D+07     INFLOWS - OUTFLOWS =         -57641.17
             --------                                   --------

 TOTAL STORAGE CHANGE =       -1.3970D+07         STORAGE CHANGE =         -57647.11
       --------------                             --------------
         LAND SURFACE =         146190.31           LAND SURFACE =          -8069.53
            SOIL ZONE =        -747279.64              SOIL ZONE =         -32950.06
     UNSATURATED ZONE =        -140707.46       UNSATURATED ZONE =          -8514.53
       SATURATED ZONE =       -1.3228D+07         SATURATED ZONE =          -8113.00

 OVERALL BUDGET ERROR =          -8239.16           BUDGET ERROR =              5.95


  PERCENT DISCREPANCY =             -0.01    PERCENT DISCREPANCY =              0.01



1
 SUMMARY VOLUMETRIC BUDGET FOR GSFLOW 
 DATE: 09 24 1995              CUMULATIVE TIME STEP:      24
 MODFLOW STRESS PERIOD     61     CURRENT TIME STEP:    1820     ITERATIONS:       7

 -----------------------------------------------------------------------------------

   CUMULATIVE VOLUMES               L**3   RATES FOR THIS TIME STEP           L**3/T
   ------------------                      ------------------------

                                     IN                                         IN
                                     --                                         --
        PRECIPITATION =        1.3351D+08          PRECIPITATION =                  
           STREAMFLOW =                               STREAMFLOW =                  
     GW BOUNDARY FLOW =           5678.49       GW BOUNDARY FLOW =              3.96


                                    OUT                                        OUT
                                    ---                                        ---
   EVAPOTRANSPIRATION =        7.4498D+07     EVAPOTRANSPIRATION =          32488.76
           STREAMFLOW =        7.3308D+07             STREAMFLOW =           7541.39
     GW BOUNDARY FLOW =          51826.18       GW BOUNDARY FLOW =             24.09

   INFLOWS - OUTFLOWS =       -1.4343D+07     INFLOWS - OUTFLOWS =         -40050.29
             --------                                   --------

 TOTAL STORAGE CHANGE =       -1.4335D+07         STORAGE CHANGE =         -40054.33
       --------------                             --------------
         LAND SURFACE =          99870.37           LAND SURFACE =          -4584.82
            SOIL ZONE =        -948790.62              SOIL ZONE =         -20085.02
     UNSATURATED ZONE =        -200395.32       UNSATURATED ZONE =          -8345.52
       SATURATED ZONE =       -1.3286D+07         SATURATED ZONE =          -7038.96

 OVERALL BUDGET ERROR =          -8199.47           BUDGET ERROR =              4.04


  PERCENT DISCREPANCY =             -0.01    PERCENT DISCREPANCY =              0.01



1
 SUMMARY VOLUMETRIC BUDGET FOR GSFLOW 
 DATE: 10 01 1995              CUMULATIVE TIME STEP:       1
 MODFLOW STRESS PERIOD     62     CURRENT TIME STEP:    1827     ITERATIONS:       6

 -----------------------------------------------------------------------------------

   CUMULATIVE VOLUMES               L**3   RATES FOR THIS TIME STEP           L**3/T
   ------------------                      ------------------------

                                     IN                                         IN
                                     --                                         --
        PRECIPITATION =        1.3351D+08          PRECIPITATION =                  
           STREAMFLOW =                               STREAMFLOW =                  
     GW BOUNDARY FLOW =           5706.46       GW BOUNDARY FLOW =              4.02


                                    OUT                                        OUT
                                    ---                                        ---
   EVAPOTRANSPIRATION =        7.4626D+07     EVAPOTRANSPIRATION =          19255.47
           STREAMFLOW =        7.3367D+07             STREAMFLOW =           8386.10
     GW BOUNDARY FLOW =          51995.35       GW BOUNDARY FLOW =             24.17

   INFLOWS - OUTFLOWS =       -1.4530D+07     INFLOWS - OUTFLOWS =         -27661.72
             --------                                   --------

 TOTAL STORAGE CHANGE =       -1.4522D+07         STORAGE CHANGE =         -27667.14
       --------------                             --------------
         LAND SURFACE =          80504.13           LAND SURFACE =          -2374.56
            SOIL ZONE =       -1024337.99              SOIL ZONE =         -11762.36
     UNSATURATED ZONE =        -253314.79       UNSATURATED ZONE =          -7526.04
       SATURATED ZONE =       -1.3325D+07         SATURATED ZONE =          -6004.18

 OVERALL BUDGET ERROR =          -8174.13           BUDGET ERROR =              5.42


  PERCENT DISCREPANCY =             -0.01    PERCENT DISCREPANCY =              0.02



1
 SUMMARY VOLUMETRIC BUDGET FOR GSFLOW 
 DATE: 10 08 1995              CUMULATIVE TIME STEP:       8
 MODFLOW STRESS PERIOD     62     CURRENT TIME STEP:    1834     ITERATIONS:       6

 -----------------------------------------------------------------------------------

   CUMULATIVE VOLUMES               L**3   RATES FOR THIS TIME STEP           L**3/T
   ------------------                      ------------------------

                                     IN                                         IN
                                     --                                         --
        PRECIPITATION =        1.3351D+08          PRECIPITATION =                  
           STREAMFLOW =                               STREAMFLOW =                  
     GW BOUNDARY FLOW =           5734.87       GW BOUNDARY FLOW =              4.08


                                    OUT                                        OUT
                                    ---                                        ---
   EVAPOTRANSPIRATION =        7.4775D+07     EVAPOTRANSPIRATION =          18624.01
           STREAMFLOW =        7.3423D+07             STREAMFLOW =           8125.93
     GW BOUNDARY FLOW =          52164.42       GW BOUNDARY FLOW =             24.16

   INFLOWS - OUTFLOWS =       -1.4736D+07     INFLOWS - OUTFLOWS =         -26770.02
             --------                                   --------

 TOTAL STORAGE CHANGE =       -1.4728D+07         STORAGE CHANGE =         -26774.31
       --------------                             --------------
         LAND SURFACE =          63718.38           LAND SURFACE =          -2022.99
            SOIL ZONE =       -1114340.82              SOIL ZONE =         -10924.03
     UNSATURATED ZONE =        -306352.53       UNSATURATED ZONE =          -7370.93
       SATURATED ZONE =       -1.3371D+07         SATURATED ZONE =          -6456.37

 OVERALL BUDGET ERROR =          -8152.43           BUDGET ERROR =              4.29


  PERCENT DISCREPANCY =             -0.01    PERCENT DISCREPANCY =              0.02



1
 SUMMARY VOLUMETRIC BUDGET FOR GSFLOW 
 DATE: 10 15 1995              CUMULATIVE TIME STEP:      15
 MODFLOW STRESS PERIOD     62     CURRENT TIME STEP:    1841     ITERATIONS:       6

 -----------------------------------------------------------------------------------

   CUMULATIVE VOLUMES               L**3   RATES FOR THIS TIME STEP           L**3/T
   ------------------                      ------------------------

                                     IN                                         IN
                                     --                                         --
        PRECIPITATION =        1.3351D+08          PRECIPITATION =                  
           STREAMFLOW =                               STREAMFLOW =                  
     GW BOUNDARY FLOW =           5763.69       GW BOUNDARY FLOW =              4.14


                                    OUT                                        OUT
                                    ---                                        ---
   EVAPOTRANSPIRATION =        7.4921D+07     EVAPOTRANSPIRATION =          23198.89
           STREAMFLOW =        7.3478D+07             STREAMFLOW =           7549.12
     GW BOUNDARY FLOW =          52333.40       GW BOUNDARY FLOW =             24.12

   INFLOWS - OUTFLOWS =       -1.4937D+07     INFLOWS - OUTFLOWS =         -30768.00
             --------                                   --------

 TOTAL STORAGE CHANGE =       -1.4929D+07         STORAGE CHANGE =         -30770.68
       --------------                             --------------
         LAND SURFACE =          49108.48           LAND SURFACE =          -2062.63
            SOIL ZONE =       -1199834.84              SOIL ZONE =         -13680.75
     UNSATURATED ZONE =        -356666.55       UNSATURATED ZONE =          -7061.89
       SATURATED ZONE =       -1.3421D+07         SATURATED ZONE =          -7965.41

 OVERALL BUDGET ERROR =          -8140.76           BUDGET ERROR =              2.68


  PERCENT DISCREPANCY =             -0.01    PERCENT DISCREPANCY =              0.01



1
 SUMMARY VOLUMETRIC BUDGET FOR GSFLOW 
 DATE: 10 22 1995              CUMULATIVE TIME STEP:      22
 MODFLOW STRESS PERIOD     62     CURRENT TIME STEP:    1848     ITERATIONS:       8

 -----------------------------------------------------------------------------------

   CUMULATIVE VOLUMES               L**3   RATES FOR THIS TIME STEP           L**3/T
   ------------------                      ------------------------

                                     IN                                         IN
                                     --                                         --
        PRECIPITATION =        1.3351D+08          PRECIPITATION =                  
           STREAMFLOW =                               STREAMFLOW =                  
     GW BOUNDARY FLOW =           5792.89       GW BOUNDARY FLOW =              4.19


                                    OUT                                        OUT
                                    ---                                        ---
   EVAPOTRANSPIRATION =        7.5051D+07     EVAPOTRANSPIRATION =           5429.80
           STREAMFLOW =        7.3532D+07             STREAMFLOW =           8779.12
     GW BOUNDARY FLOW =          52502.36       GW BOUNDARY FLOW =             24.23

   INFLOWS - OUTFLOWS =       -1.5121D+07     INFLOWS - OUTFLOWS =         -14228.95
             --------                                   --------

 TOTAL STORAGE CHANGE =       -1.5113D+07         STORAGE CHANGE =         -14229.72
       --------------                             --------------
         LAND SURFACE =          37740.73           LAND SURFACE =           -558.26
            SOIL ZONE =       -1273659.00              SOIL ZONE =          -2942.63
     UNSATURATED ZONE =        -403533.46       UNSATURATED ZONE =          -6014.83
       SATURATED ZONE =       -1.3474D+07         SATURATED ZONE =          -4714.01

 OVERALL BUDGET ERROR =          -8128.76           BUDGET ERROR =              0.76


  PERCENT DISCREPANCY =             -0.01    PERCENT DISCREPANCY =              0.01



1
 SUMMARY VOLUMETRIC BUDGET FOR GSFLOW 
 DATE: 10 29 1995              CUMULATIVE TIME STEP:      29
 MODFLOW STRESS PERIOD     62     CURRENT TIME STEP:    1855     ITERATIONS:       5

 -----------------------------------------------------------------------------------

   CUMULATIVE VOLUMES               L**3   RATES FOR THIS TIME STEP           L**3/T
   ------------------                      ------------------------

                                     IN                                         IN
                                     --                                         --
        PRECIPITATION =        1.3351D+08          PRECIPITATION =                  
           STREAMFLOW =                               STREAMFLOW =                  
     GW BOUNDARY FLOW =           5822.45       GW BOUNDARY FLOW =              4.25


                                    OUT                                        OUT
                                    ---                                        ---
   EVAPOTRANSPIRATION =        7.5129D+07     EVAPOTRANSPIRATION =          13699.91
           STREAMFLOW =        7.3590D+07             STREAMFLOW =           7924.76
     GW BOUNDARY FLOW =          52671.72       GW BOUNDARY FLOW =             24.17

   INFLOWS - OUTFLOWS =       -1.5258D+07     INFLOWS - OUTFLOWS =         -21644.59
             --------                                   --------

 TOTAL STORAGE CHANGE =       -1.5250D+07         STORAGE CHANGE =         -21647.40
       --------------                             --------------
         LAND SURFACE =          32600.56           LAND SURFACE =          -1136.67
            SOIL ZONE =       -1316234.19              SOIL ZONE =          -7038.53
     UNSATURATED ZONE =        -447819.87       UNSATURATED ZONE =          -6423.36
       SATURATED ZONE =       -1.3518D+07         SATURATED ZONE =          -7048.83

 OVERALL BUDGET ERROR =          -8114.03           BUDGET ERROR =              2.81


  PERCENT DISCREPANCY =             -0.01    PERCENT DISCREPANCY =              0.01



