1
 SUMMARY VOLUMETRIC BUDGET FOR GSFLOW 
 DATE: 10 07 1990              CUMULATIVE TIME STEP:       7
 MODFLOW STRESS PERIOD      2     CURRENT TIME STEP:       7     ITERATIONS:       7

 -----------------------------------------------------------------------------------

   CUMULATIVE VOLUMES               L**3   RATES FOR THIS TIME STEP           L**3/T
   ------------------                      ------------------------

                                     IN                                         IN
                                     --                                         --
        PRECIPITATION =                            PRECIPITATION =                  
           STREAMFLOW =                               STREAMFLOW =                  
     GW BOUNDARY FLOW =                         GW BOUNDARY FLOW =                  


                                    OUT                                        OUT
                                    ---                                        ---
   EVAPOTRANSPIRATION =         381260.01     EVAPOTRANSPIRATION =          12556.96
           STREAMFLOW =          45701.28             STREAMFLOW =           8118.57
     GW BOUNDARY FLOW =            252.78       GW BOUNDARY FLOW =             36.30

   INFLOWS - OUTFLOWS =        -427214.06     INFLOWS - OUTFLOWS =         -20711.83
             --------                                   --------

 TOTAL STORAGE CHANGE =        -425749.32         STORAGE CHANGE =         -20683.58
       --------------                             --------------
         LAND SURFACE =                             LAND SURFACE =                  
            SOIL ZONE =         -33202.27              SOIL ZONE =          -1000.83
     UNSATURATED ZONE =        -499638.97       UNSATURATED ZONE =         -34044.85
       SATURATED ZONE =         107091.92         SATURATED ZONE =          14362.10

 OVERALL BUDGET ERROR =          -1464.74           BUDGET ERROR =            -28.25


  PERCENT DISCREPANCY =             -0.34    PERCENT DISCREPANCY =             -0.14



1
 SUMMARY VOLUMETRIC BUDGET FOR GSFLOW 
 DATE: 10 14 1990              CUMULATIVE TIME STEP:      14
 MODFLOW STRESS PERIOD      2     CURRENT TIME STEP:      14     ITERATIONS:       6

 -----------------------------------------------------------------------------------

   CUMULATIVE VOLUMES               L**3   RATES FOR THIS TIME STEP           L**3/T
   ------------------                      ------------------------

                                     IN                                         IN
                                     --                                         --
        PRECIPITATION =                            PRECIPITATION =                  
           STREAMFLOW =                               STREAMFLOW =                  
     GW BOUNDARY FLOW =                         GW BOUNDARY FLOW =                  


                                    OUT                                        OUT
                                    ---                                        ---
   EVAPOTRANSPIRATION =         659579.95     EVAPOTRANSPIRATION =          42718.65
           STREAMFLOW =         100510.97             STREAMFLOW =           7415.76
     GW BOUNDARY FLOW =            506.62       GW BOUNDARY FLOW =             36.24

   INFLOWS - OUTFLOWS =        -760597.54     INFLOWS - OUTFLOWS =         -50170.65
             --------                                   --------

 TOTAL STORAGE CHANGE =        -758853.64         STORAGE CHANGE =         -50150.62
       --------------                             --------------
         LAND SURFACE =                             LAND SURFACE =                  
            SOIL ZONE =         -57900.28              SOIL ZONE =          -4412.68
     UNSATURATED ZONE =        -873653.89       UNSATURATED ZONE =         -52585.49
       SATURATED ZONE =         172700.53         SATURATED ZONE =           6847.56

 OVERALL BUDGET ERROR =          -1743.90           BUDGET ERROR =            -20.03


  PERCENT DISCREPANCY =             -0.23    PERCENT DISCREPANCY =             -0.04



1
 SUMMARY VOLUMETRIC BUDGET FOR GSFLOW 
 DATE: 10 21 1990              CUMULATIVE TIME STEP:      21
 MODFLOW STRESS PERIOD      2     CURRENT TIME STEP:      21     ITERATIONS:       6

 -----------------------------------------------------------------------------------

   CUMULATIVE VOLUMES               L**3   RATES FOR THIS TIME STEP           L**3/T
   ------------------                      ------------------------

                                     IN                                         IN
                                     --                                         --
        PRECIPITATION =         188432.87          PRECIPITATION =                  
           STREAMFLOW =                               STREAMFLOW =                  
     GW BOUNDARY FLOW =                         GW BOUNDARY FLOW =                  


                                    OUT                                        OUT
                                    ---                                        ---
   EVAPOTRANSPIRATION =         801326.13     EVAPOTRANSPIRATION =          36527.18
           STREAMFLOW =         163532.19             STREAMFLOW =          10136.41
     GW BOUNDARY FLOW =            760.81       GW BOUNDARY FLOW =             36.37

   INFLOWS - OUTFLOWS =        -777186.25     INFLOWS - OUTFLOWS =         -46699.96
             --------                                   --------

 TOTAL STORAGE CHANGE =        -776634.89         STORAGE CHANGE =         -46704.11
       --------------                             --------------
         LAND SURFACE =          15977.62           LAND SURFACE =         -34861.64
            SOIL ZONE =          56480.87              SOIL ZONE =           -453.85
     UNSATURATED ZONE =       -1085935.30       UNSATURATED ZONE =         -22058.56
       SATURATED ZONE =         236841.91         SATURATED ZONE =          10669.94

 OVERALL BUDGET ERROR =           -551.36           BUDGET ERROR =              4.14


  PERCENT DISCREPANCY =             -0.06    PERCENT DISCREPANCY =              0.01



1
 SUMMARY VOLUMETRIC BUDGET FOR GSFLOW 
 DATE: 10 28 1990              CUMULATIVE TIME STEP:      28
 MODFLOW STRESS PERIOD      2     CURRENT TIME STEP:      28     ITERATIONS:       7

 -----------------------------------------------------------------------------------

   CUMULATIVE VOLUMES               L**3   RATES FOR THIS TIME STEP           L**3/T
   ------------------                      ------------------------

                                     IN                                         IN
                                     --                                         --
        PRECIPITATION =         188432.87          PRECIPITATION =                  
           STREAMFLOW =                               STREAMFLOW =                  
     GW BOUNDARY FLOW =                         GW BOUNDARY FLOW =                  


                                    OUT                                        OUT
                                    ---                                        ---
   EVAPOTRANSPIRATION =         925952.14     EVAPOTRANSPIRATION =          11158.03
           STREAMFLOW =         225110.77             STREAMFLOW =           8987.52
     GW BOUNDARY FLOW =           1013.99       GW BOUNDARY FLOW =             36.13

   INFLOWS - OUTFLOWS =        -963644.03     INFLOWS - OUTFLOWS =         -20181.68
             --------                                   --------

 TOTAL STORAGE CHANGE =        -963058.61         STORAGE CHANGE =         -20176.79
       --------------                             --------------
         LAND SURFACE =                             LAND SURFACE =                  
            SOIL ZONE =          28250.99              SOIL ZONE =          -3305.52
     UNSATURATED ZONE =       -1270579.81       UNSATURATED ZONE =         -23164.51
       SATURATED ZONE =         279270.21         SATURATED ZONE =           6293.24

 OVERALL BUDGET ERROR =           -585.42           BUDGET ERROR =             -4.89


  PERCENT DISCREPANCY =             -0.05    PERCENT DISCREPANCY =             -0.02



1
 SUMMARY VOLUMETRIC BUDGET FOR GSFLOW 
 DATE: 11 04 1990              CUMULATIVE TIME STEP:       4
 MODFLOW STRESS PERIOD      3     CURRENT TIME STEP:      35     ITERATIONS:       6

 -----------------------------------------------------------------------------------

   CUMULATIVE VOLUMES               L**3   RATES FOR THIS TIME STEP           L**3/T
   ------------------                      ------------------------

                                     IN                                         IN
                                     --                                         --
        PRECIPITATION =         703113.06          PRECIPITATION =                  
           STREAMFLOW =                               STREAMFLOW =                  
     GW BOUNDARY FLOW =                         GW BOUNDARY FLOW =                  


                                    OUT                                        OUT
                                    ---                                        ---
   EVAPOTRANSPIRATION =         984976.22     EVAPOTRANSPIRATION =          25494.02
           STREAMFLOW =         296243.51             STREAMFLOW =          10652.64
     GW BOUNDARY FLOW =           1267.05       GW BOUNDARY FLOW =             36.13

   INFLOWS - OUTFLOWS =        -579373.73     INFLOWS - OUTFLOWS =         -36182.79
             --------                                   --------

 TOTAL STORAGE CHANGE =        -583677.50         STORAGE CHANGE =         -37442.56
       --------------                             --------------
         LAND SURFACE =          71009.70           LAND SURFACE =         -84159.07
            SOIL ZONE =         421361.19              SOIL ZONE =          57454.48
     UNSATURATED ZONE =       -1416447.29       UNSATURATED ZONE =         -20123.21
       SATURATED ZONE =         340398.89         SATURATED ZONE =           9385.25

 OVERALL BUDGET ERROR =           4303.77           BUDGET ERROR =           1259.76

  ***WARNING, FLUX RATES OFF > 3%

  PERCENT DISCREPANCY =              0.34    PERCENT DISCREPANCY =              3.42



1
 SUMMARY VOLUMETRIC BUDGET FOR GSFLOW 
 DATE: 11 11 1990              CUMULATIVE TIME STEP:      11
 MODFLOW STRESS PERIOD      3     CURRENT TIME STEP:      42     ITERATIONS:       6

 -----------------------------------------------------------------------------------

   CUMULATIVE VOLUMES               L**3   RATES FOR THIS TIME STEP           L**3/T
   ------------------                      ------------------------

                                     IN                                         IN
                                     --                                         --
        PRECIPITATION =         703113.06          PRECIPITATION =                  
           STREAMFLOW =                               STREAMFLOW =                  
     GW BOUNDARY FLOW =                         GW BOUNDARY FLOW =                  


                                    OUT                                        OUT
                                    ---                                        ---
   EVAPOTRANSPIRATION =        1057566.20     EVAPOTRANSPIRATION =          12435.65
           STREAMFLOW =         367436.57             STREAMFLOW =           9673.70
     GW BOUNDARY FLOW =           1519.16       GW BOUNDARY FLOW =             35.93

   INFLOWS - OUTFLOWS =        -723408.87     INFLOWS - OUTFLOWS =         -22145.27
             --------                                   --------

 TOTAL STORAGE CHANGE =        -727835.10         STORAGE CHANGE =         -22137.22
       --------------                             --------------
         LAND SURFACE =            295.92           LAND SURFACE =           -859.89
            SOIL ZONE =         438219.67              SOIL ZONE =          -6297.00
     UNSATURATED ZONE =       -1556731.11       UNSATURATED ZONE =         -20016.01
       SATURATED ZONE =         390380.39         SATURATED ZONE =           5035.68

 OVERALL BUDGET ERROR =           4426.22           BUDGET ERROR =             -8.05


  PERCENT DISCREPANCY =              0.31    PERCENT DISCREPANCY =             -0.04



1
 SUMMARY VOLUMETRIC BUDGET FOR GSFLOW 
 DATE: 11 18 1990              CUMULATIVE TIME STEP:      18
 MODFLOW STRESS PERIOD      3     CURRENT TIME STEP:      49     ITERATIONS:       6

 -----------------------------------------------------------------------------------

   CUMULATIVE VOLUMES               L**3   RATES FOR THIS TIME STEP           L**3/T
   ------------------                      ------------------------

                                     IN                                         IN
                                     --                                         --
        PRECIPITATION =         747883.35          PRECIPITATION =                  
           STREAMFLOW =                               STREAMFLOW =                  
     GW BOUNDARY FLOW =                         GW BOUNDARY FLOW =                  


                                    OUT                                        OUT
                                    ---                                        ---
   EVAPOTRANSPIRATION =        1126253.41     EVAPOTRANSPIRATION =           5352.99
           STREAMFLOW =         439342.95             STREAMFLOW =          10698.44
     GW BOUNDARY FLOW =           1770.48       GW BOUNDARY FLOW =             35.88

   INFLOWS - OUTFLOWS =        -819483.48     INFLOWS - OUTFLOWS =         -16087.31
             --------                                   --------

 TOTAL STORAGE CHANGE =        -823894.12         STORAGE CHANGE =         -16090.83
       --------------                             --------------
         LAND SURFACE =          10077.61           LAND SURFACE =          -4199.79
            SOIL ZONE =         420974.33              SOIL ZONE =           -595.42
     UNSATURATED ZONE =       -1690604.07       UNSATURATED ZONE =         -18691.72
       SATURATED ZONE =         435657.96         SATURATED ZONE =           7396.09

 OVERALL BUDGET ERROR =           4410.64           BUDGET ERROR =              3.52


  PERCENT DISCREPANCY =              0.28    PERCENT DISCREPANCY =              0.02



1
 SUMMARY VOLUMETRIC BUDGET FOR GSFLOW 
 DATE: 11 25 1990              CUMULATIVE TIME STEP:      25
 MODFLOW STRESS PERIOD      3     CURRENT TIME STEP:      56     ITERATIONS:       6

 -----------------------------------------------------------------------------------

   CUMULATIVE VOLUMES               L**3   RATES FOR THIS TIME STEP           L**3/T
   ------------------                      ------------------------

                                     IN                                         IN
                                     --                                         --
        PRECIPITATION =        1009043.38          PRECIPITATION =         186542.88
           STREAMFLOW =                               STREAMFLOW =                  
     GW BOUNDARY FLOW =                         GW BOUNDARY FLOW =                  


                                    OUT                                        OUT
                                    ---                                        ---
   EVAPOTRANSPIRATION =        1186048.11     EVAPOTRANSPIRATION =           3807.53
           STREAMFLOW =         515429.36             STREAMFLOW =          10898.79
     GW BOUNDARY FLOW =           2021.42       GW BOUNDARY FLOW =             35.79

   INFLOWS - OUTFLOWS =        -694455.50     INFLOWS - OUTFLOWS =         171800.75
             --------                                   --------

 TOTAL STORAGE CHANGE =        -700950.39         STORAGE CHANGE =         169962.91
       --------------                             --------------
         LAND SURFACE =          92124.67           LAND SURFACE =          75233.82
            SOIL ZONE =         540110.68              SOIL ZONE =         106299.45
     UNSATURATED ZONE =       -1818685.07       UNSATURATED ZONE =         -17980.00
       SATURATED ZONE =         485499.27         SATURATED ZONE =           6409.64

 OVERALL BUDGET ERROR =           6494.88           BUDGET ERROR =           1837.85


  PERCENT DISCREPANCY =              0.38    PERCENT DISCREPANCY =              0.99



1
 SUMMARY VOLUMETRIC BUDGET FOR GSFLOW 
 DATE: 12 02 1990              CUMULATIVE TIME STEP:       2
 MODFLOW STRESS PERIOD      4     CURRENT TIME STEP:      63     ITERATIONS:       6

 -----------------------------------------------------------------------------------

   CUMULATIVE VOLUMES               L**3   RATES FOR THIS TIME STEP           L**3/T
   ------------------                      ------------------------

                                     IN                                         IN
                                     --                                         --
        PRECIPITATION =        1449284.55          PRECIPITATION =                  
           STREAMFLOW =                               STREAMFLOW =                  
     GW BOUNDARY FLOW =                         GW BOUNDARY FLOW =                  


                                    OUT                                        OUT
                                    ---                                        ---
   EVAPOTRANSPIRATION =        1193616.13     EVAPOTRANSPIRATION =            374.47
           STREAMFLOW =         592769.52             STREAMFLOW =          11088.49
     GW BOUNDARY FLOW =           2271.90       GW BOUNDARY FLOW =             35.77

   INFLOWS - OUTFLOWS =        -339373.00     INFLOWS - OUTFLOWS =         -11498.73
             --------                                   --------

 TOTAL STORAGE CHANGE =        -346904.43         STORAGE CHANGE =         -11500.48
       --------------                             --------------
         LAND SURFACE =         493448.43           LAND SURFACE =           -453.37
            SOIL ZONE =         570740.46              SOIL ZONE =            128.71
     UNSATURATED ZONE =       -1941977.15       UNSATURATED ZONE =         -17319.72
       SATURATED ZONE =         530883.75         SATURATED ZONE =           6143.90

 OVERALL BUDGET ERROR =           7531.44           BUDGET ERROR =              1.75


  PERCENT DISCREPANCY =              0.42    PERCENT DISCREPANCY =              0.02



1
 SUMMARY VOLUMETRIC BUDGET FOR GSFLOW 
 DATE: 12 09 1990              CUMULATIVE TIME STEP:       9
 MODFLOW STRESS PERIOD      4     CURRENT TIME STEP:      70     ITERATIONS:       6

 -----------------------------------------------------------------------------------

   CUMULATIVE VOLUMES               L**3   RATES FOR THIS TIME STEP           L**3/T
   ------------------                      ------------------------

                                     IN                                         IN
                                     --                                         --
        PRECIPITATION =        1449284.55          PRECIPITATION =                  
           STREAMFLOW =                               STREAMFLOW =                  
     GW BOUNDARY FLOW =                         GW BOUNDARY FLOW =                  


                                    OUT                                        OUT
                                    ---                                        ---
   EVAPOTRANSPIRATION =        1270503.61     EVAPOTRANSPIRATION =          13593.73
           STREAMFLOW =         670493.38             STREAMFLOW =          10881.91
     GW BOUNDARY FLOW =           2521.86       GW BOUNDARY FLOW =             35.64

   INFLOWS - OUTFLOWS =        -494234.30     INFLOWS - OUTFLOWS =         -24511.29
             --------                                   --------

 TOTAL STORAGE CHANGE =        -506118.64         STORAGE CHANGE =         -24616.62
       --------------                             --------------
         LAND SURFACE =          66382.65           LAND SURFACE =         -46525.52
            SOIL ZONE =         920294.51              SOIL ZONE =          34662.83
     UNSATURATED ZONE =       -2060189.10       UNSATURATED ZONE =         -16540.84
       SATURATED ZONE =         567393.18         SATURATED ZONE =           3786.90

 OVERALL BUDGET ERROR =          11884.34           BUDGET ERROR =            105.34


  PERCENT DISCREPANCY =              0.61    PERCENT DISCREPANCY =              0.43



1
 SUMMARY VOLUMETRIC BUDGET FOR GSFLOW 
 DATE: 12 16 1990              CUMULATIVE TIME STEP:      16
 MODFLOW STRESS PERIOD      4     CURRENT TIME STEP:      77     ITERATIONS:       6

 -----------------------------------------------------------------------------------

   CUMULATIVE VOLUMES               L**3   RATES FOR THIS TIME STEP           L**3/T
   ------------------                      ------------------------

                                     IN                                         IN
                                     --                                         --
        PRECIPITATION =        1804962.84          PRECIPITATION =                  
           STREAMFLOW =                               STREAMFLOW =                  
     GW BOUNDARY FLOW =                         GW BOUNDARY FLOW =                  


                                    OUT                                        OUT
                                    ---                                        ---
   EVAPOTRANSPIRATION =        1298782.77     EVAPOTRANSPIRATION =                  
           STREAMFLOW =         750266.98             STREAMFLOW =          11530.37
     GW BOUNDARY FLOW =           2771.27       GW BOUNDARY FLOW =             35.61

   INFLOWS - OUTFLOWS =        -246858.17     INFLOWS - OUTFLOWS =         -11565.98
             --------                                   --------

 TOTAL STORAGE CHANGE =        -260918.63         STORAGE CHANGE =         -11566.44
       --------------                             --------------
         LAND SURFACE =         256077.35           LAND SURFACE =                  
            SOIL ZONE =        1058539.22              SOIL ZONE =            -18.55
     UNSATURATED ZONE =       -2173945.02       UNSATURATED ZONE =         -15998.83
       SATURATED ZONE =         598409.66         SATURATED ZONE =           4450.93

 OVERALL BUDGET ERROR =          14060.46           BUDGET ERROR =              0.46


  PERCENT DISCREPANCY =              0.68    PERCENT DISCREPANCY =              0.00



1
 SUMMARY VOLUMETRIC BUDGET FOR GSFLOW 
 DATE: 12 23 1990              CUMULATIVE TIME STEP:      23
 MODFLOW STRESS PERIOD      4     CURRENT TIME STEP:      84     ITERATIONS:       6

 -----------------------------------------------------------------------------------

   CUMULATIVE VOLUMES               L**3   RATES FOR THIS TIME STEP           L**3/T
   ------------------                      ------------------------

                                     IN                                         IN
                                     --                                         --
        PRECIPITATION =        2276236.55          PRECIPITATION =                  
           STREAMFLOW =                               STREAMFLOW =                  
     GW BOUNDARY FLOW =              0.08       GW BOUNDARY FLOW =              0.04


                                    OUT                                        OUT
                                    ---                                        ---
   EVAPOTRANSPIRATION =        1300157.30     EVAPOTRANSPIRATION =                  
           STREAMFLOW =         831177.66             STREAMFLOW =          11581.08
     GW BOUNDARY FLOW =           3020.30       GW BOUNDARY FLOW =             35.57

   INFLOWS - OUTFLOWS =         141881.37     INFLOWS - OUTFLOWS =         -11616.61
             --------                                   --------

 TOTAL STORAGE CHANGE =         127820.92         STORAGE CHANGE =         -11616.22
       --------------                             --------------
         LAND SURFACE =         725980.65           LAND SURFACE =                  
            SOIL ZONE =        1058742.35              SOIL ZONE =             57.54
     UNSATURATED ZONE =       -2283473.06       UNSATURATED ZONE =         -15400.79
       SATURATED ZONE =         626570.79         SATURATED ZONE =           3727.03

 OVERALL BUDGET ERROR =          14060.45           BUDGET ERROR =             -0.39


  PERCENT DISCREPANCY =              0.62    PERCENT DISCREPANCY =             -0.00



1
 SUMMARY VOLUMETRIC BUDGET FOR GSFLOW 
 DATE: 12 30 1990              CUMULATIVE TIME STEP:      30
 MODFLOW STRESS PERIOD      4     CURRENT TIME STEP:      91     ITERATIONS:       5

 -----------------------------------------------------------------------------------

   CUMULATIVE VOLUMES               L**3   RATES FOR THIS TIME STEP           L**3/T
   ------------------                      ------------------------

                                     IN                                         IN
                                     --                                         --
        PRECIPITATION =        2276236.55          PRECIPITATION =                  
           STREAMFLOW =                               STREAMFLOW =                  
     GW BOUNDARY FLOW =              0.77       GW BOUNDARY FLOW =              0.14


                                    OUT                                        OUT
                                    ---                                        ---
   EVAPOTRANSPIRATION =        1300909.94     EVAPOTRANSPIRATION =                  
           STREAMFLOW =         912487.45             STREAMFLOW =          11643.67
     GW BOUNDARY FLOW =           3269.41       GW BOUNDARY FLOW =             35.60

   INFLOWS - OUTFLOWS =          59570.53     INFLOWS - OUTFLOWS =         -11679.12
             --------                                   --------

 TOTAL STORAGE CHANGE =          45520.68         STORAGE CHANGE =         -11676.65
       --------------                             --------------
         LAND SURFACE =         725228.16           LAND SURFACE =                  
            SOIL ZONE =        1059335.12              SOIL ZONE =            102.74
     UNSATURATED ZONE =       -2389117.14       UNSATURATED ZONE =         -14859.92
       SATURATED ZONE =         650074.31         SATURATED ZONE =           3080.51

 OVERALL BUDGET ERROR =          14049.85           BUDGET ERROR =             -2.47


  PERCENT DISCREPANCY =              0.62    PERCENT DISCREPANCY =             -0.02



1
 SUMMARY VOLUMETRIC BUDGET FOR GSFLOW 
 DATE: 01 06 1991              CUMULATIVE TIME STEP:       6
 MODFLOW STRESS PERIOD      5     CURRENT TIME STEP:      98     ITERATIONS:       5

 -----------------------------------------------------------------------------------

   CUMULATIVE VOLUMES               L**3   RATES FOR THIS TIME STEP           L**3/T
   ------------------                      ------------------------

                                     IN                                         IN
                                     --                                         --
        PRECIPITATION =        2276236.55          PRECIPITATION =                  
           STREAMFLOW =                               STREAMFLOW =                  
     GW BOUNDARY FLOW =              2.09       GW BOUNDARY FLOW =              0.22


                                    OUT                                        OUT
                                    ---                                        ---
   EVAPOTRANSPIRATION =        1324178.49     EVAPOTRANSPIRATION =           2582.15
           STREAMFLOW =         994412.08             STREAMFLOW =          11742.33
     GW BOUNDARY FLOW =           3519.28       GW BOUNDARY FLOW =             35.75

   INFLOWS - OUTFLOWS =         -45871.20     INFLOWS - OUTFLOWS =         -14360.01
             --------                                   --------

 TOTAL STORAGE CHANGE =         -62291.81         STORAGE CHANGE =         -14472.29
       --------------                             --------------
         LAND SURFACE =         620283.29           LAND SURFACE =          -6112.33
            SOIL ZONE =        1139331.87              SOIL ZONE =           3511.66
     UNSATURATED ZONE =       -2490793.47       UNSATURATED ZONE =         -14287.23
       SATURATED ZONE =         668886.23         SATURATED ZONE =           2415.61

 OVERALL BUDGET ERROR =          16420.61           BUDGET ERROR =            112.28


  PERCENT DISCREPANCY =              0.70    PERCENT DISCREPANCY =              0.78



1
 SUMMARY VOLUMETRIC BUDGET FOR GSFLOW 
 DATE: 01 13 1991              CUMULATIVE TIME STEP:      13
 MODFLOW STRESS PERIOD      5     CURRENT TIME STEP:     105     ITERATIONS:       6

 -----------------------------------------------------------------------------------

   CUMULATIVE VOLUMES               L**3   RATES FOR THIS TIME STEP           L**3/T
   ------------------                      ------------------------

                                     IN                                         IN
                                     --                                         --
        PRECIPITATION =        2596386.94          PRECIPITATION =          10327.43
           STREAMFLOW =                               STREAMFLOW =                  
     GW BOUNDARY FLOW =              4.02       GW BOUNDARY FLOW =              0.31


                                    OUT                                        OUT
                                    ---                                        ---
   EVAPOTRANSPIRATION =        1383984.22     EVAPOTRANSPIRATION =          16642.49
           STREAMFLOW =        1076721.46             STREAMFLOW =          11690.86
     GW BOUNDARY FLOW =           3769.50       GW BOUNDARY FLOW =             35.73

   INFLOWS - OUTFLOWS =         131915.78     INFLOWS - OUTFLOWS =         -18041.34
             --------                                   --------

 TOTAL STORAGE CHANGE =         110596.79         STORAGE CHANGE =         -19305.73
       --------------                             --------------
         LAND SURFACE =         586364.85           LAND SURFACE =        -135127.18
            SOIL ZONE =        1430631.81              SOIL ZONE =         128545.70
     UNSATURATED ZONE =       -2588411.01       UNSATURATED ZONE =         -13744.52
       SATURATED ZONE =         682010.83         SATURATED ZONE =           1020.25

 OVERALL BUDGET ERROR =          21318.99           BUDGET ERROR =           1264.39

  ***WARNING, FLUX RATES OFF > 3%

  PERCENT DISCREPANCY =              0.82    PERCENT DISCREPANCY =              4.36



1
 SUMMARY VOLUMETRIC BUDGET FOR GSFLOW 
 DATE: 01 20 1991              CUMULATIVE TIME STEP:      20
 MODFLOW STRESS PERIOD      5     CURRENT TIME STEP:     112     ITERATIONS:       5

 -----------------------------------------------------------------------------------

   CUMULATIVE VOLUMES               L**3   RATES FOR THIS TIME STEP           L**3/T
   ------------------                      ------------------------

                                     IN                                         IN
                                     --                                         --
        PRECIPITATION =        2596386.94          PRECIPITATION =                  
           STREAMFLOW =                               STREAMFLOW =                  
     GW BOUNDARY FLOW =              6.55       GW BOUNDARY FLOW =              0.40


                                    OUT                                        OUT
                                    ---                                        ---
   EVAPOTRANSPIRATION =        1452186.48     EVAPOTRANSPIRATION =           1809.90
           STREAMFLOW =        1159818.22             STREAMFLOW =          11900.83
     GW BOUNDARY FLOW =           4019.75       GW BOUNDARY FLOW =             35.75

   INFLOWS - OUTFLOWS =         -19630.95     INFLOWS - OUTFLOWS =         -13746.09
             --------                                   --------

 TOTAL STORAGE CHANGE =         -41862.79         STORAGE CHANGE =         -13737.61
       --------------                             --------------
         LAND SURFACE =         422210.58           LAND SURFACE =           -295.67
            SOIL ZONE =        1526837.83              SOIL ZONE =          -1441.53
     UNSATURATED ZONE =       -2682104.88       UNSATURATED ZONE =         -13164.56
       SATURATED ZONE =         691193.30         SATURATED ZONE =           1164.15

 OVERALL BUDGET ERROR =          22231.84           BUDGET ERROR =             -8.48


  PERCENT DISCREPANCY =              0.85    PERCENT DISCREPANCY =             -0.06



1
 SUMMARY VOLUMETRIC BUDGET FOR GSFLOW 
 DATE: 01 27 1991              CUMULATIVE TIME STEP:      27
 MODFLOW STRESS PERIOD      5     CURRENT TIME STEP:     119     ITERATIONS:       5

 -----------------------------------------------------------------------------------

   CUMULATIVE VOLUMES               L**3   RATES FOR THIS TIME STEP           L**3/T
   ------------------                      ------------------------

                                     IN                                         IN
                                     --                                         --
        PRECIPITATION =        2596386.94          PRECIPITATION =                  
           STREAMFLOW =                               STREAMFLOW =                  
     GW BOUNDARY FLOW =              9.66       GW BOUNDARY FLOW =              0.48


                                    OUT                                        OUT
                                    ---                                        ---
   EVAPOTRANSPIRATION =        1473160.96     EVAPOTRANSPIRATION =           1215.82
           STREAMFLOW =        1243094.58             STREAMFLOW =          11921.66
     GW BOUNDARY FLOW =           4269.95       GW BOUNDARY FLOW =             35.74

   INFLOWS - OUTFLOWS =        -124128.89     INFLOWS - OUTFLOWS =         -13172.74
             --------                                   --------

 TOTAL STORAGE CHANGE =        -146507.75         STORAGE CHANGE =         -13157.15
       --------------                             --------------
         LAND SURFACE =         394226.38           LAND SURFACE =           -109.80
            SOIL ZONE =        1534779.50              SOIL ZONE =          -1004.13
     UNSATURATED ZONE =       -2772283.33       UNSATURATED ZONE =         -12662.11
       SATURATED ZONE =         696769.25         SATURATED ZONE =            618.89

 OVERALL BUDGET ERROR =          22378.85           BUDGET ERROR =            -15.60


  PERCENT DISCREPANCY =              0.82    PERCENT DISCREPANCY =             -0.12



1
 SUMMARY VOLUMETRIC BUDGET FOR GSFLOW 
 DATE: 02 03 1991              CUMULATIVE TIME STEP:       3
 MODFLOW STRESS PERIOD      6     CURRENT TIME STEP:     126     ITERATIONS:       6

 -----------------------------------------------------------------------------------

   CUMULATIVE VOLUMES               L**3   RATES FOR THIS TIME STEP           L**3/T
   ------------------                      ------------------------

                                     IN                                         IN
                                     --                                         --
        PRECIPITATION =        3228422.31          PRECIPITATION =          30459.53
           STREAMFLOW =                               STREAMFLOW =                  
     GW BOUNDARY FLOW =             13.31       GW BOUNDARY FLOW =              0.55


                                    OUT                                        OUT
                                    ---                                        ---
   EVAPOTRANSPIRATION =        1571497.79     EVAPOTRANSPIRATION =          20004.14
           STREAMFLOW =        1327874.85             STREAMFLOW =          12223.52
     GW BOUNDARY FLOW =           4520.12       GW BOUNDARY FLOW =             35.74

   INFLOWS - OUTFLOWS =         324542.85     INFLOWS - OUTFLOWS =          -1803.31
             --------                                   --------

 TOTAL STORAGE CHANGE =         295233.25         STORAGE CHANGE =          -2055.13
       --------------                             --------------
         LAND SURFACE =         184727.70           LAND SURFACE =         -28670.24
            SOIL ZONE =        2272647.36              SOIL ZONE =          38971.86
     UNSATURATED ZONE =       -2859280.67       UNSATURATED ZONE =         -12276.98
       SATURATED ZONE =         697138.36         SATURATED ZONE =            -79.78

 OVERALL BUDGET ERROR =          29309.60           BUDGET ERROR =            251.83


  PERCENT DISCREPANCY =              0.91    PERCENT DISCREPANCY =              0.78



1
 SUMMARY VOLUMETRIC BUDGET FOR GSFLOW 
 DATE: 02 10 1991              CUMULATIVE TIME STEP:      10
 MODFLOW STRESS PERIOD      6     CURRENT TIME STEP:     133     ITERATIONS:       5

 -----------------------------------------------------------------------------------

   CUMULATIVE VOLUMES               L**3   RATES FOR THIS TIME STEP           L**3/T
   ------------------                      ------------------------

                                     IN                                         IN
                                     --                                         --
        PRECIPITATION =        3510173.01          PRECIPITATION =                  
           STREAMFLOW =                               STREAMFLOW =                  
     GW BOUNDARY FLOW =             17.49       GW BOUNDARY FLOW =              0.63


                                    OUT                                        OUT
                                    ---                                        ---
   EVAPOTRANSPIRATION =        1736969.18     EVAPOTRANSPIRATION =          25306.38
           STREAMFLOW =        1413896.35             STREAMFLOW =          12160.75
     GW BOUNDARY FLOW =           4770.20       GW BOUNDARY FLOW =             35.72

   INFLOWS - OUTFLOWS =         354554.77     INFLOWS - OUTFLOWS =         -37502.22
             --------                                   --------

 TOTAL STORAGE CHANGE =         322418.51         STORAGE CHANGE =         -37436.56
       --------------                             --------------
         LAND SURFACE =          90050.80           LAND SURFACE =         -12330.62
            SOIL ZONE =        2479921.39              SOIL ZONE =         -12747.92
     UNSATURATED ZONE =       -2942754.44       UNSATURATED ZONE =         -11795.16
       SATURATED ZONE =         695200.17         SATURATED ZONE =           -562.87

 OVERALL BUDGET ERROR =          32136.26           BUDGET ERROR =            -65.66


  PERCENT DISCREPANCY =              0.92    PERCENT DISCREPANCY =             -0.18



1
 SUMMARY VOLUMETRIC BUDGET FOR GSFLOW 
 DATE: 02 17 1991              CUMULATIVE TIME STEP:      17
 MODFLOW STRESS PERIOD      6     CURRENT TIME STEP:     140     ITERATIONS:       5

 -----------------------------------------------------------------------------------

   CUMULATIVE VOLUMES               L**3   RATES FOR THIS TIME STEP           L**3/T
   ------------------                      ------------------------

                                     IN                                         IN
                                     --                                         --
        PRECIPITATION =        3510173.01          PRECIPITATION =                  
           STREAMFLOW =                               STREAMFLOW =                  
     GW BOUNDARY FLOW =             22.16       GW BOUNDARY FLOW =              0.70


                                    OUT                                        OUT
                                    ---                                        ---
   EVAPOTRANSPIRATION =        1977070.78     EVAPOTRANSPIRATION =          23092.48
           STREAMFLOW =        1498654.55             STREAMFLOW =          12110.39
     GW BOUNDARY FLOW =           5020.14       GW BOUNDARY FLOW =             35.68

   INFLOWS - OUTFLOWS =          29449.71     INFLOWS - OUTFLOWS =         -35237.85
             --------                                   --------

 TOTAL STORAGE CHANGE =          -1948.15         STORAGE CHANGE =         -35144.51
       --------------                             --------------
         LAND SURFACE =          18163.73           LAND SURFACE =          -1654.25
            SOIL ZONE =        2313593.49              SOIL ZONE =         -21370.88
     UNSATURATED ZONE =       -3022849.10       UNSATURATED ZONE =         -11095.98
       SATURATED ZONE =         689143.05         SATURATED ZONE =          -1023.41

 OVERALL BUDGET ERROR =          31397.87           BUDGET ERROR =            -93.34


  PERCENT DISCREPANCY =              0.90    PERCENT DISCREPANCY =             -0.27



1
 SUMMARY VOLUMETRIC BUDGET FOR GSFLOW 
 DATE: 02 24 1991              CUMULATIVE TIME STEP:      24
 MODFLOW STRESS PERIOD      6     CURRENT TIME STEP:     147     ITERATIONS:       5

 -----------------------------------------------------------------------------------

   CUMULATIVE VOLUMES               L**3   RATES FOR THIS TIME STEP           L**3/T
   ------------------                      ------------------------

                                     IN                                         IN
                                     --                                         --
        PRECIPITATION =        3510173.01          PRECIPITATION =                  
           STREAMFLOW =                               STREAMFLOW =                  
     GW BOUNDARY FLOW =             27.31       GW BOUNDARY FLOW =              0.76


                                    OUT                                        OUT
                                    ---                                        ---
   EVAPOTRANSPIRATION =        2192230.84     EVAPOTRANSPIRATION =          21916.84
           STREAMFLOW =        1583030.43             STREAMFLOW =          12041.48
     GW BOUNDARY FLOW =           5269.20       GW BOUNDARY FLOW =             35.51

   INFLOWS - OUTFLOWS =        -270330.15     INFLOWS - OUTFLOWS =         -33993.06
             --------                                   --------

 TOTAL STORAGE CHANGE =        -300915.73         STORAGE CHANGE =         -33904.93
       --------------                             --------------
         LAND SURFACE =           6686.42           LAND SURFACE =           -239.07
            SOIL ZONE =        2111526.95              SOIL ZONE =         -21440.16
     UNSATURATED ZONE =       -3098816.94       UNSATURATED ZONE =         -10685.57
       SATURATED ZONE =         679687.08         SATURATED ZONE =          -1540.14

 OVERALL BUDGET ERROR =          30585.58           BUDGET ERROR =            -88.13


  PERCENT DISCREPANCY =              0.81    PERCENT DISCREPANCY =             -0.26



1
 SUMMARY VOLUMETRIC BUDGET FOR GSFLOW 
 DATE: 03 03 1991              CUMULATIVE TIME STEP:       3
 MODFLOW STRESS PERIOD      7     CURRENT TIME STEP:     154     ITERATIONS:       5

 -----------------------------------------------------------------------------------

   CUMULATIVE VOLUMES               L**3   RATES FOR THIS TIME STEP           L**3/T
   ------------------                      ------------------------

                                     IN                                         IN
                                     --                                         --
        PRECIPITATION =        6220189.63          PRECIPITATION =        1243187.24
           STREAMFLOW =                               STREAMFLOW =                  
     GW BOUNDARY FLOW =             32.91       GW BOUNDARY FLOW =              0.83


                                    OUT                                        OUT
                                    ---                                        ---
   EVAPOTRANSPIRATION =        2344419.88     EVAPOTRANSPIRATION =           7987.75
           STREAMFLOW =        1666997.25             STREAMFLOW =          12233.30
     GW BOUNDARY FLOW =           5516.98       GW BOUNDARY FLOW =             35.33

   INFLOWS - OUTFLOWS =        2203288.43     INFLOWS - OUTFLOWS =        1222931.68
             --------                                   --------

 TOTAL STORAGE CHANGE =        2166587.21         STORAGE CHANGE =        1216272.01
       --------------                             --------------
         LAND SURFACE =        2505892.53           LAND SURFACE =        1046737.06
            SOIL ZONE =        2166903.53              SOIL ZONE =         182172.34
     UNSATURATED ZONE =       -3171894.14       UNSATURATED ZONE =         -10260.40
       SATURATED ZONE =         665684.44         SATURATED ZONE =          -2377.01

 OVERALL BUDGET ERROR =          36701.22           BUDGET ERROR =           6659.68


  PERCENT DISCREPANCY =              0.59    PERCENT DISCREPANCY =              0.54



1
 SUMMARY VOLUMETRIC BUDGET FOR GSFLOW 
 DATE: 03 10 1991              CUMULATIVE TIME STEP:      10
 MODFLOW STRESS PERIOD      7     CURRENT TIME STEP:     161     ITERATIONS:       5

 -----------------------------------------------------------------------------------

   CUMULATIVE VOLUMES               L**3   RATES FOR THIS TIME STEP           L**3/T
   ------------------                      ------------------------

                                     IN                                         IN
                                     --                                         --
        PRECIPITATION =        8746030.42          PRECIPITATION =          32888.55
           STREAMFLOW =                               STREAMFLOW =                  
     GW BOUNDARY FLOW =             38.94       GW BOUNDARY FLOW =              0.89


                                    OUT                                        OUT
                                    ---                                        ---
   EVAPOTRANSPIRATION =        2397093.85     EVAPOTRANSPIRATION =           6893.81
           STREAMFLOW =        1801852.58             STREAMFLOW =          18579.86
     GW BOUNDARY FLOW =           5764.99       GW BOUNDARY FLOW =             35.35

   INFLOWS - OUTFLOWS =        4541357.94     INFLOWS - OUTFLOWS =           7380.42
             --------                                   --------

 TOTAL STORAGE CHANGE =        4472838.20         STORAGE CHANGE =           6568.18
       --------------                             --------------
         LAND SURFACE =        3056677.03           LAND SURFACE =          -5526.40
            SOIL ZONE =        3972296.23              SOIL ZONE =          18843.44
     UNSATURATED ZONE =       -3212638.16       UNSATURATED ZONE =          -5078.08
       SATURATED ZONE =         656502.06         SATURATED ZONE =          -1670.82

 OVERALL BUDGET ERROR =          68519.74           BUDGET ERROR =            812.24


  PERCENT DISCREPANCY =              0.79    PERCENT DISCREPANCY =              2.50



1
 SUMMARY VOLUMETRIC BUDGET FOR GSFLOW 
 DATE: 03 17 1991              CUMULATIVE TIME STEP:      17
 MODFLOW STRESS PERIOD      7     CURRENT TIME STEP:     168     ITERATIONS:       6

 -----------------------------------------------------------------------------------

   CUMULATIVE VOLUMES               L**3   RATES FOR THIS TIME STEP           L**3/T
   ------------------                      ------------------------

                                     IN                                         IN
                                     --                                         --
        PRECIPITATION =        9897129.71          PRECIPITATION =         157865.04
           STREAMFLOW =                               STREAMFLOW =                  
     GW BOUNDARY FLOW =             45.40       GW BOUNDARY FLOW =              0.95


                                    OUT                                        OUT
                                    ---                                        ---
   EVAPOTRANSPIRATION =        2418489.12     EVAPOTRANSPIRATION =           6373.62
           STREAMFLOW =        1924137.58             STREAMFLOW =          16969.71
     GW BOUNDARY FLOW =           6011.78       GW BOUNDARY FLOW =             35.18

   INFLOWS - OUTFLOWS =        5548536.63     INFLOWS - OUTFLOWS =         134487.48
             --------                                   --------

 TOTAL STORAGE CHANGE =        5480166.04         STORAGE CHANGE =         134524.47
       --------------                             --------------
         LAND SURFACE =        4188230.79           LAND SURFACE =         152136.56
            SOIL ZONE =        3897006.97              SOIL ZONE =          -9920.26
     UNSATURATED ZONE =       -3248773.87       UNSATURATED ZONE =          -5404.96
       SATURATED ZONE =         643700.90         SATURATED ZONE =          -2286.91

 OVERALL BUDGET ERROR =          68370.59           BUDGET ERROR =            -36.99


  PERCENT DISCREPANCY =              0.69    PERCENT DISCREPANCY =             -0.02



1
 SUMMARY VOLUMETRIC BUDGET FOR GSFLOW 
 DATE: 03 24 1991              CUMULATIVE TIME STEP:      24
 MODFLOW STRESS PERIOD      7     CURRENT TIME STEP:     175     ITERATIONS:       5

 -----------------------------------------------------------------------------------

   CUMULATIVE VOLUMES               L**3   RATES FOR THIS TIME STEP           L**3/T
   ------------------                      ------------------------

                                     IN                                         IN
                                     --                                         --
        PRECIPITATION =        1.1673D+07          PRECIPITATION =        1230031.83
           STREAMFLOW =                               STREAMFLOW =                  
     GW BOUNDARY FLOW =             52.26       GW BOUNDARY FLOW =              1.00


                                    OUT                                        OUT
                                    ---                                        ---
   EVAPOTRANSPIRATION =        2449349.87     EVAPOTRANSPIRATION =           3628.49
           STREAMFLOW =        2041134.67             STREAMFLOW =          16538.78
     GW BOUNDARY FLOW =           6257.43       GW BOUNDARY FLOW =             35.03

   INFLOWS - OUTFLOWS =        7176421.80     INFLOWS - OUTFLOWS =        1209830.53
             --------                                   --------

 TOTAL STORAGE CHANGE =        7108400.21         STORAGE CHANGE =        1210007.78
       --------------                             --------------
         LAND SURFACE =        5933783.02           LAND SURFACE =        1227482.51
            SOIL ZONE =        3834709.54              SOIL ZONE =          -9390.03
     UNSATURATED ZONE =       -3287015.58       UNSATURATED ZONE =          -5548.73
       SATURATED ZONE =         626921.77         SATURATED ZONE =          -2536.01

 OVERALL BUDGET ERROR =          68021.58           BUDGET ERROR =           -177.24


  PERCENT DISCREPANCY =              0.58    PERCENT DISCREPANCY =             -0.01



1
 SUMMARY VOLUMETRIC BUDGET FOR GSFLOW 
 DATE: 03 31 1991              CUMULATIVE TIME STEP:      31
 MODFLOW STRESS PERIOD      7     CURRENT TIME STEP:     182     ITERATIONS:       5

 -----------------------------------------------------------------------------------

   CUMULATIVE VOLUMES               L**3   RATES FOR THIS TIME STEP           L**3/T
   ------------------                      ------------------------

                                     IN                                         IN
                                     --                                         --
        PRECIPITATION =        1.2495D+07          PRECIPITATION =                  
           STREAMFLOW =                               STREAMFLOW =                  
     GW BOUNDARY FLOW =             59.51       GW BOUNDARY FLOW =              1.06


                                    OUT                                        OUT
                                    ---                                        ---
   EVAPOTRANSPIRATION =        2555886.14     EVAPOTRANSPIRATION =          43675.48
           STREAMFLOW =        2159584.67             STREAMFLOW =          19068.95
     GW BOUNDARY FLOW =           6502.18       GW BOUNDARY FLOW =             34.96

   INFLOWS - OUTFLOWS =        7773411.81     INFLOWS - OUTFLOWS =         -62778.32
             --------                                   --------

 TOTAL STORAGE CHANGE =        7702473.50         STORAGE CHANGE =         -65216.08
       --------------                             --------------
         LAND SURFACE =        6553217.20           LAND SURFACE =        -112248.22
            SOIL ZONE =        3866257.49              SOIL ZONE =          54935.27
     UNSATURATED ZONE =       -3324620.81       UNSATURATED ZONE =          -4860.88
       SATURATED ZONE =         607617.95         SATURATED ZONE =          -3042.28

 OVERALL BUDGET ERROR =          70938.31           BUDGET ERROR =           2437.76

  ***WARNING, FLUX RATES OFF > 3%

  PERCENT DISCREPANCY =              0.57    PERCENT DISCREPANCY =              3.81



1
 SUMMARY VOLUMETRIC BUDGET FOR GSFLOW 
 DATE: 04 07 1991              CUMULATIVE TIME STEP:       7
 MODFLOW STRESS PERIOD      8     CURRENT TIME STEP:     189     ITERATIONS:       8

 -----------------------------------------------------------------------------------

   CUMULATIVE VOLUMES               L**3   RATES FOR THIS TIME STEP           L**3/T
   ------------------                      ------------------------

                                     IN                                         IN
                                     --                                         --
        PRECIPITATION =        1.3018D+07          PRECIPITATION =                  
           STREAMFLOW =                               STREAMFLOW =                  
     GW BOUNDARY FLOW =             67.14       GW BOUNDARY FLOW =              1.11


                                    OUT                                        OUT
                                    ---                                        ---
   EVAPOTRANSPIRATION =        2839067.82     EVAPOTRANSPIRATION =          13548.64
           STREAMFLOW =        2422560.46             STREAMFLOW =          52250.17
     GW BOUNDARY FLOW =           6748.74       GW BOUNDARY FLOW =             35.45

   INFLOWS - OUTFLOWS =        7749426.85     INFLOWS - OUTFLOWS =         -65833.15
             --------                                   --------

 TOTAL STORAGE CHANGE =        7649491.04         STORAGE CHANGE =         -66185.93
       --------------                             --------------
         LAND SURFACE =        5033740.13           LAND SURFACE =         -59134.98
            SOIL ZONE =        5344268.45              SOIL ZONE =         -12247.51
     UNSATURATED ZONE =       -3319601.12       UNSATURATED ZONE =           6706.77
       SATURATED ZONE =         591081.65         SATURATED ZONE =          -1510.25

 OVERALL BUDGET ERROR =          99935.81           BUDGET ERROR =            352.78


  PERCENT DISCREPANCY =              0.77    PERCENT DISCREPANCY =              0.53



1
 SUMMARY VOLUMETRIC BUDGET FOR GSFLOW 
 DATE: 04 14 1991              CUMULATIVE TIME STEP:      14
 MODFLOW STRESS PERIOD      8     CURRENT TIME STEP:     196     ITERATIONS:       7

 -----------------------------------------------------------------------------------

   CUMULATIVE VOLUMES               L**3   RATES FOR THIS TIME STEP           L**3/T
   ------------------                      ------------------------

                                     IN                                         IN
                                     --                                         --
        PRECIPITATION =        1.3018D+07          PRECIPITATION =                  
           STREAMFLOW =                               STREAMFLOW =                  
     GW BOUNDARY FLOW =             75.08       GW BOUNDARY FLOW =              1.16


                                    OUT                                        OUT
                                    ---                                        ---
   EVAPOTRANSPIRATION =        3008891.27     EVAPOTRANSPIRATION =          38932.87
           STREAMFLOW =        2840557.86             STREAMFLOW =          64799.93
     GW BOUNDARY FLOW =           6997.04       GW BOUNDARY FLOW =             35.49

   INFLOWS - OUTFLOWS =        7161365.65     INFLOWS - OUTFLOWS =        -103767.14
             --------                                   --------

 TOTAL STORAGE CHANGE =        7070432.01         STORAGE CHANGE =        -103765.80
       --------------                             --------------
         LAND SURFACE =        4429762.56           LAND SURFACE =        -170838.53
            SOIL ZONE =        5335752.81              SOIL ZONE =          62529.94
     UNSATURATED ZONE =       -3271883.89       UNSATURATED ZONE =           6532.54
       SATURATED ZONE =         576798.28         SATURATED ZONE =          -1989.79

 OVERALL BUDGET ERROR =          90933.64           BUDGET ERROR =             -1.34


  PERCENT DISCREPANCY =              0.70    PERCENT DISCREPANCY =             -0.00



1
 SUMMARY VOLUMETRIC BUDGET FOR GSFLOW 
 DATE: 04 21 1991              CUMULATIVE TIME STEP:      21
 MODFLOW STRESS PERIOD      8     CURRENT TIME STEP:     203     ITERATIONS:       7

 -----------------------------------------------------------------------------------

   CUMULATIVE VOLUMES               L**3   RATES FOR THIS TIME STEP           L**3/T
   ------------------                      ------------------------

                                     IN                                         IN
                                     --                                         --
        PRECIPITATION =        1.3034D+07          PRECIPITATION =                  
           STREAMFLOW =                               STREAMFLOW =                  
     GW BOUNDARY FLOW =             83.34       GW BOUNDARY FLOW =              1.20


                                    OUT                                        OUT
                                    ---                                        ---
   EVAPOTRANSPIRATION =        3240561.03     EVAPOTRANSPIRATION =          43438.50
           STREAMFLOW =        3351070.04             STREAMFLOW =          85591.38
     GW BOUNDARY FLOW =           7245.79       GW BOUNDARY FLOW =             35.66

   INFLOWS - OUTFLOWS =        6435268.59     INFLOWS - OUTFLOWS =        -129064.34
             --------                                   --------

 TOTAL STORAGE CHANGE =        6359129.48         STORAGE CHANGE =        -126246.95
       --------------                             --------------
         LAND SURFACE =        3339485.92           LAND SURFACE =        -212222.76
            SOIL ZONE =        5675576.13              SOIL ZONE =          78521.88
     UNSATURATED ZONE =       -3220930.27       UNSATURATED ZONE =           8992.92
       SATURATED ZONE =         564995.11         SATURATED ZONE =          -1539.05

 OVERALL BUDGET ERROR =          76139.11           BUDGET ERROR =          -2817.39


  PERCENT DISCREPANCY =              0.59    PERCENT DISCREPANCY =             -2.21



1
 SUMMARY VOLUMETRIC BUDGET FOR GSFLOW 
 DATE: 04 28 1991              CUMULATIVE TIME STEP:      28
 MODFLOW STRESS PERIOD      8     CURRENT TIME STEP:     210     ITERATIONS:       6

 -----------------------------------------------------------------------------------

   CUMULATIVE VOLUMES               L**3   RATES FOR THIS TIME STEP           L**3/T
   ------------------                      ------------------------

                                     IN                                         IN
                                     --                                         --
        PRECIPITATION =        1.3303D+07          PRECIPITATION =                  
           STREAMFLOW =                               STREAMFLOW =                  
     GW BOUNDARY FLOW =             91.87       GW BOUNDARY FLOW =              1.23


                                    OUT                                        OUT
                                    ---                                        ---
   EVAPOTRANSPIRATION =        3487408.04     EVAPOTRANSPIRATION =          55254.99
           STREAMFLOW =        3968095.20             STREAMFLOW =          85123.05
     GW BOUNDARY FLOW =           7495.16       GW BOUNDARY FLOW =             35.54

   INFLOWS - OUTFLOWS =        5840523.99     INFLOWS - OUTFLOWS =        -140412.34
             --------                                   --------

 TOTAL STORAGE CHANGE =        5804653.41         STORAGE CHANGE =        -133795.84
       --------------                             --------------
         LAND SURFACE =        2758651.59           LAND SURFACE =        -113752.45
            SOIL ZONE =        5646332.40              SOIL ZONE =         -27177.29
     UNSATURATED ZONE =       -3157245.43       UNSATURATED ZONE =           8278.75
       SATURATED ZONE =         556911.88         SATURATED ZONE =          -1144.91

 OVERALL BUDGET ERROR =          35870.58           BUDGET ERROR =          -6616.50

  ***WARNING, FLUX RATES OFF > 3%

  PERCENT DISCREPANCY =              0.27    PERCENT DISCREPANCY =             -4.83



1
 SUMMARY VOLUMETRIC BUDGET FOR GSFLOW 
 DATE: 05 05 1991              CUMULATIVE TIME STEP:       5
 MODFLOW STRESS PERIOD      9     CURRENT TIME STEP:     217     ITERATIONS:      74

 -----------------------------------------------------------------------------------

   CUMULATIVE VOLUMES               L**3   RATES FOR THIS TIME STEP           L**3/T
   ------------------                      ------------------------

                                     IN                                         IN
                                     --                                         --
        PRECIPITATION =        1.3510D+07          PRECIPITATION =                  
           STREAMFLOW =                               STREAMFLOW =                  
     GW BOUNDARY FLOW =            100.67       GW BOUNDARY FLOW =              1.27


                                    OUT                                        OUT
                                    ---                                        ---
   EVAPOTRANSPIRATION =        3836323.73     EVAPOTRANSPIRATION =          84775.93
           STREAMFLOW =        4527472.75             STREAMFLOW =          81185.61
     GW BOUNDARY FLOW =           7742.96       GW BOUNDARY FLOW =             35.35

   INFLOWS - OUTFLOWS =        5138269.35     INFLOWS - OUTFLOWS =        -165995.62
             --------                                   --------

 TOTAL STORAGE CHANGE =        5145235.39         STORAGE CHANGE =        -160079.92
       --------------                             --------------
         LAND SURFACE =        2105621.15           LAND SURFACE =        -166214.31
            SOIL ZONE =        5595536.97              SOIL ZONE =          -1011.56
     UNSATURATED ZONE =       -3104269.15       UNSATURATED ZONE =           6509.65
       SATURATED ZONE =         548343.04         SATURATED ZONE =            636.24

 OVERALL BUDGET ERROR =          -6966.04           BUDGET ERROR =          -5915.70

  ***WARNING, FLUX RATES OFF > 3%

  PERCENT DISCREPANCY =             -0.05    PERCENT DISCREPANCY =             -3.63



1
 SUMMARY VOLUMETRIC BUDGET FOR GSFLOW 
 DATE: 05 12 1991              CUMULATIVE TIME STEP:      12
 MODFLOW STRESS PERIOD      9     CURRENT TIME STEP:     224     ITERATIONS:       6

 -----------------------------------------------------------------------------------

   CUMULATIVE VOLUMES               L**3   RATES FOR THIS TIME STEP           L**3/T
   ------------------                      ------------------------

                                     IN                                         IN
                                     --                                         --
        PRECIPITATION =        1.4029D+07          PRECIPITATION =                  
           STREAMFLOW =                               STREAMFLOW =                  
     GW BOUNDARY FLOW =            109.73       GW BOUNDARY FLOW =              1.31


                                    OUT                                        OUT
                                    ---                                        ---
   EVAPOTRANSPIRATION =        4206089.14     EVAPOTRANSPIRATION =          62574.84
           STREAMFLOW =        5076269.71             STREAMFLOW =          81046.68
     GW BOUNDARY FLOW =           7989.43       GW BOUNDARY FLOW =             35.16

   INFLOWS - OUTFLOWS =        4738983.62     INFLOWS - OUTFLOWS =        -143655.38
             --------                                   --------

 TOTAL STORAGE CHANGE =        4785881.25         STORAGE CHANGE =        -138426.48
       --------------                             --------------
         LAND SURFACE =        1671151.50           LAND SURFACE =        -195073.29
            SOIL ZONE =        5626051.05              SOIL ZONE =          50648.65
     UNSATURATED ZONE =       -3050040.99       UNSATURATED ZONE =           7467.87
       SATURATED ZONE =         538715.88         SATURATED ZONE =          -1469.77

 OVERALL BUDGET ERROR =         -46897.63           BUDGET ERROR =          -5228.89

  ***WARNING, FLUX RATES OFF > 3%

  PERCENT DISCREPANCY =             -0.33    PERCENT DISCREPANCY =             -3.71



1
 SUMMARY VOLUMETRIC BUDGET FOR GSFLOW 
 DATE: 05 19 1991              CUMULATIVE TIME STEP:      19
 MODFLOW STRESS PERIOD      9     CURRENT TIME STEP:     231     ITERATIONS:       6

 -----------------------------------------------------------------------------------

   CUMULATIVE VOLUMES               L**3   RATES FOR THIS TIME STEP           L**3/T
   ------------------                      ------------------------

                                     IN                                         IN
                                     --                                         --
        PRECIPITATION =        1.4365D+07          PRECIPITATION =                  
           STREAMFLOW =                               STREAMFLOW =                  
     GW BOUNDARY FLOW =            119.06       GW BOUNDARY FLOW =              1.35


                                    OUT                                        OUT
                                    ---                                        ---
   EVAPOTRANSPIRATION =        4606000.79     EVAPOTRANSPIRATION =          17977.42
           STREAMFLOW =        5620217.20             STREAMFLOW =          70412.90
     GW BOUNDARY FLOW =           8234.61       GW BOUNDARY FLOW =             34.86

   INFLOWS - OUTFLOWS =        4131044.78     INFLOWS - OUTFLOWS =         -88423.82
             --------                                   --------

 TOTAL STORAGE CHANGE =        4220849.58         STORAGE CHANGE =         -81543.15
       --------------                             --------------
         LAND SURFACE =        1131549.53           LAND SURFACE =         -21030.92
            SOIL ZONE =        5557310.22              SOIL ZONE =         -65387.15
     UNSATURATED ZONE =       -2997015.91       UNSATURATED ZONE =           6543.53
       SATURATED ZONE =         529001.50         SATURATED ZONE =          -1668.67

 OVERALL BUDGET ERROR =         -89804.81           BUDGET ERROR =          -6880.67

  ***WARNING, FLUX RATES OFF > 3%

  PERCENT DISCREPANCY =             -0.62    PERCENT DISCREPANCY =             -8.10



1
 SUMMARY VOLUMETRIC BUDGET FOR GSFLOW 
 DATE: 05 26 1991              CUMULATIVE TIME STEP:      26
 MODFLOW STRESS PERIOD      9     CURRENT TIME STEP:     238     ITERATIONS:       6

 -----------------------------------------------------------------------------------

   CUMULATIVE VOLUMES               L**3   RATES FOR THIS TIME STEP           L**3/T
   ------------------                      ------------------------

                                     IN                                         IN
                                     --                                         --
        PRECIPITATION =        1.4426D+07          PRECIPITATION =                  
           STREAMFLOW =                               STREAMFLOW =                  
     GW BOUNDARY FLOW =            128.66       GW BOUNDARY FLOW =              1.39


                                    OUT                                        OUT
                                    ---                                        ---
   EVAPOTRANSPIRATION =        5253020.91     EVAPOTRANSPIRATION =          71052.75
           STREAMFLOW =        6066697.20             STREAMFLOW =          51479.26
     GW BOUNDARY FLOW =           8477.29       GW BOUNDARY FLOW =             34.42

   INFLOWS - OUTFLOWS =        3098430.88     INFLOWS - OUTFLOWS =        -122565.04
             --------                                   --------

 TOTAL STORAGE CHANGE =        3227983.32         STORAGE CHANGE =        -118053.49
       --------------                             --------------
         LAND SURFACE =         596309.91           LAND SURFACE =         -39567.86
            SOIL ZONE =        5074783.05              SOIL ZONE =         -79700.78
     UNSATURATED ZONE =       -2959598.21       UNSATURATED ZONE =           3160.54
       SATURATED ZONE =         516483.88         SATURATED ZONE =          -1945.45

 OVERALL BUDGET ERROR =        -129552.44           BUDGET ERROR =          -4511.55

  ***WARNING, FLUX RATES OFF > 3%

  PERCENT DISCREPANCY =             -0.89    PERCENT DISCREPANCY =             -3.75



1
 SUMMARY VOLUMETRIC BUDGET FOR GSFLOW 
 DATE: 06 02 1991              CUMULATIVE TIME STEP:       2
 MODFLOW STRESS PERIOD     10     CURRENT TIME STEP:     245     ITERATIONS:       6

 -----------------------------------------------------------------------------------

   CUMULATIVE VOLUMES               L**3   RATES FOR THIS TIME STEP           L**3/T
   ------------------                      ------------------------

                                     IN                                         IN
                                     --                                         --
        PRECIPITATION =        1.4671D+07          PRECIPITATION =                  
           STREAMFLOW =                               STREAMFLOW =                  
     GW BOUNDARY FLOW =            138.54       GW BOUNDARY FLOW =              1.43


                                    OUT                                        OUT
                                    ---                                        ---
   EVAPOTRANSPIRATION =        5797689.85     EVAPOTRANSPIRATION =         119330.20
           STREAMFLOW =        6391230.77             STREAMFLOW =          42537.42
     GW BOUNDARY FLOW =           8717.01       GW BOUNDARY FLOW =             34.12

   INFLOWS - OUTFLOWS =        2473475.71     INFLOWS - OUTFLOWS =        -161900.31
             --------                                   --------

 TOTAL STORAGE CHANGE =        2626735.16         STORAGE CHANGE =        -158067.81
       --------------                             --------------
         LAND SURFACE =         342585.53           LAND SURFACE =         -44718.56
            SOIL ZONE =        4729801.46              SOIL ZONE =        -112218.11
     UNSATURATED ZONE =       -2947048.22       UNSATURATED ZONE =           1125.53
       SATURATED ZONE =         501391.27         SATURATED ZONE =          -2256.73

 OVERALL BUDGET ERROR =        -153259.45           BUDGET ERROR =          -3832.50


  PERCENT DISCREPANCY =             -1.04    PERCENT DISCREPANCY =             -2.40



1
 SUMMARY VOLUMETRIC BUDGET FOR GSFLOW 
 DATE: 06 09 1991              CUMULATIVE TIME STEP:       9
 MODFLOW STRESS PERIOD     10     CURRENT TIME STEP:     252     ITERATIONS:       6

 -----------------------------------------------------------------------------------

   CUMULATIVE VOLUMES               L**3   RATES FOR THIS TIME STEP           L**3/T
   ------------------                      ------------------------

                                     IN                                         IN
                                     --                                         --
        PRECIPITATION =        1.4671D+07          PRECIPITATION =                  
           STREAMFLOW =                               STREAMFLOW =                  
     GW BOUNDARY FLOW =            148.70       GW BOUNDARY FLOW =              1.47


                                    OUT                                        OUT
                                    ---                                        ---
   EVAPOTRANSPIRATION =        6513670.19     EVAPOTRANSPIRATION =         166443.84
           STREAMFLOW =        6629913.01             STREAMFLOW =          28793.67
     GW BOUNDARY FLOW =           8954.19       GW BOUNDARY FLOW =             33.72

   INFLOWS - OUTFLOWS =        1518586.12     INFLOWS - OUTFLOWS =        -195269.76
             --------                                   --------

 TOTAL STORAGE CHANGE =        1690496.07         STORAGE CHANGE =        -192764.14
       --------------                             --------------
         LAND SURFACE =         143816.54           LAND SURFACE =         -32280.14
            SOIL ZONE =        4017484.52              SOIL ZONE =        -155224.89
     UNSATURATED ZONE =       -2953008.58       UNSATURATED ZONE =          -2219.42
       SATURATED ZONE =         482198.01         SATURATED ZONE =          -3039.75

 OVERALL BUDGET ERROR =        -171909.95           BUDGET ERROR =          -2505.62


  PERCENT DISCREPANCY =             -1.16    PERCENT DISCREPANCY =             -1.29



1
 SUMMARY VOLUMETRIC BUDGET FOR GSFLOW 
 DATE: 06 16 1991              CUMULATIVE TIME STEP:      16
 MODFLOW STRESS PERIOD     10     CURRENT TIME STEP:     259     ITERATIONS:       6

 -----------------------------------------------------------------------------------

   CUMULATIVE VOLUMES               L**3   RATES FOR THIS TIME STEP           L**3/T
   ------------------                      ------------------------

                                     IN                                         IN
                                     --                                         --
        PRECIPITATION =        1.4671D+07          PRECIPITATION =                  
           STREAMFLOW =                               STREAMFLOW =                  
     GW BOUNDARY FLOW =            159.17       GW BOUNDARY FLOW =              1.51


                                    OUT                                        OUT
                                    ---                                        ---
   EVAPOTRANSPIRATION =        7472607.97     EVAPOTRANSPIRATION =         108408.19
           STREAMFLOW =        6779222.03             STREAMFLOW =          17885.58
     GW BOUNDARY FLOW =           9187.44       GW BOUNDARY FLOW =             33.19

   INFLOWS - OUTFLOWS =         410116.53     INFLOWS - OUTFLOWS =        -126325.45
             --------                                   --------

 TOTAL STORAGE CHANGE =         594957.70         STORAGE CHANGE =        -124851.83
       --------------                             --------------
         LAND SURFACE =          39366.58           LAND SURFACE =          -6891.90
            SOIL ZONE =        3096632.71              SOIL ZONE =        -103921.30
     UNSATURATED ZONE =       -2996627.78       UNSATURATED ZONE =          -9464.07
       SATURATED ZONE =         455580.17         SATURATED ZONE =          -4574.62

 OVERALL BUDGET ERROR =        -184841.18           BUDGET ERROR =          -1473.62


  PERCENT DISCREPANCY =             -1.25    PERCENT DISCREPANCY =             -1.17



1
 SUMMARY VOLUMETRIC BUDGET FOR GSFLOW 
 DATE: 06 23 1991              CUMULATIVE TIME STEP:      23
 MODFLOW STRESS PERIOD     10     CURRENT TIME STEP:     266     ITERATIONS:       6

 -----------------------------------------------------------------------------------

   CUMULATIVE VOLUMES               L**3   RATES FOR THIS TIME STEP           L**3/T
   ------------------                      ------------------------

                                     IN                                         IN
                                     --                                         --
        PRECIPITATION =        1.4671D+07          PRECIPITATION =                  
           STREAMFLOW =                               STREAMFLOW =                  
     GW BOUNDARY FLOW =            169.93       GW BOUNDARY FLOW =              1.56


                                    OUT                                        OUT
                                    ---                                        ---
   EVAPOTRANSPIRATION =        7953019.31     EVAPOTRANSPIRATION =          34556.22
           STREAMFLOW =        6890632.65             STREAMFLOW =          15411.94
     GW BOUNDARY FLOW =           9418.96       GW BOUNDARY FLOW =             33.03

   INFLOWS - OUTFLOWS =        -181926.18     INFLOWS - OUTFLOWS =         -49999.63
             --------                                   --------

 TOTAL STORAGE CHANGE =          11126.33         STORAGE CHANGE =         -49198.39
       --------------                             --------------
         LAND SURFACE =          15682.85           LAND SURFACE =          -1548.12
            SOIL ZONE =        2644045.03              SOIL ZONE =         -33799.27
     UNSATURATED ZONE =       -3068135.38       UNSATURATED ZONE =          -8560.96
       SATURATED ZONE =         419527.36         SATURATED ZONE =          -5290.10

 OVERALL BUDGET ERROR =        -193052.51           BUDGET ERROR =           -801.24


  PERCENT DISCREPANCY =             -1.31    PERCENT DISCREPANCY =             -1.62



1
 SUMMARY VOLUMETRIC BUDGET FOR GSFLOW 
 DATE: 06 30 1991              CUMULATIVE TIME STEP:      30
 MODFLOW STRESS PERIOD     10     CURRENT TIME STEP:     273     ITERATIONS:       8

 -----------------------------------------------------------------------------------

[...]
                                    ---                                        ---
   EVAPOTRANSPIRATION =        7.3431D+07     EVAPOTRANSPIRATION =          85158.23
           STREAMFLOW =        7.4977D+07             STREAMFLOW =          13691.29
     GW BOUNDARY FLOW =          51038.71       GW BOUNDARY FLOW =             24.47

   INFLOWS - OUTFLOWS =       -1.4944D+07     INFLOWS - OUTFLOWS =         -98870.60
             --------                                   --------

 TOTAL STORAGE CHANGE =       -1.0497D+07         STORAGE CHANGE =         -97326.53
       --------------                             --------------
         LAND SURFACE =         518159.97           LAND SURFACE =         -24360.57
            SOIL ZONE =        2171154.89              SOIL ZONE =         -59097.23
     UNSATURATED ZONE =          42562.85       UNSATURATED ZONE =          -9034.27
       SATURATED ZONE =       -1.3229D+07         SATURATED ZONE =          -4834.99

 OVERALL BUDGET ERROR =       -4447657.38           BUDGET ERROR =          -1544.07


  PERCENT DISCREPANCY =             -3.04    PERCENT DISCREPANCY =             -1.57



1
 SUMMARY VOLUMETRIC BUDGET FOR GSFLOW 
 DATE: 09 03 1995              CUMULATIVE TIME STEP:       3
 MODFLOW STRESS PERIOD     61     CURRENT TIME STEP:    1799     ITERATIONS:       6

 -----------------------------------------------------------------------------------

   CUMULATIVE VOLUMES               L**3   RATES FOR THIS TIME STEP           L**3/T
   ------------------                      ------------------------

                                     IN                                         IN
                                     --                                         --
        PRECIPITATION =        1.3351D+08          PRECIPITATION =                  
           STREAMFLOW =                               STREAMFLOW =                  
     GW BOUNDARY FLOW =           5625.71       GW BOUNDARY FLOW =              3.48


                                    OUT                                        OUT
                                    ---                                        ---
   EVAPOTRANSPIRATION =        7.4006D+07     EVAPOTRANSPIRATION =          77160.06
           STREAMFLOW =        7.5061D+07             STREAMFLOW =          10869.57
     GW BOUNDARY FLOW =          51208.81       GW BOUNDARY FLOW =             24.22

   INFLOWS - OUTFLOWS =       -1.5604D+07     INFLOWS - OUTFLOWS =         -88050.38
             --------                                   --------

 TOTAL STORAGE CHANGE =       -1.1149D+07         STORAGE CHANGE =         -87521.68
       --------------                             --------------
         LAND SURFACE =         367299.20           LAND SURFACE =         -19252.55
            SOIL ZONE =        1777314.40              SOIL ZONE =         -52173.08
     UNSATURATED ZONE =         -23178.83       UNSATURATED ZONE =          -9469.98
       SATURATED ZONE =       -1.3271D+07         SATURATED ZONE =          -6626.61

 OVERALL BUDGET ERROR =       -4455025.61           BUDGET ERROR =           -528.70


  PERCENT DISCREPANCY =             -3.03    PERCENT DISCREPANCY =             -0.60



1
 SUMMARY VOLUMETRIC BUDGET FOR GSFLOW 
 DATE: 09 10 1995              CUMULATIVE TIME STEP:      10
 MODFLOW STRESS PERIOD     61     CURRENT TIME STEP:    1806     ITERATIONS:       7

 -----------------------------------------------------------------------------------

   CUMULATIVE VOLUMES               L**3   RATES FOR THIS TIME STEP           L**3/T
   ------------------                      ------------------------

                                     IN                                         IN
                                     --                                         --
        PRECIPITATION =        1.3351D+08          PRECIPITATION =                  
           STREAMFLOW =                               STREAMFLOW =                  
     GW BOUNDARY FLOW =           5650.42       GW BOUNDARY FLOW =              3.57


                                    OUT                                        OUT
                                    ---                                        ---
   EVAPOTRANSPIRATION =        7.4440D+07     EVAPOTRANSPIRATION =          58063.41
           STREAMFLOW =        7.5133D+07             STREAMFLOW =           9788.56
     GW BOUNDARY FLOW =          51378.32       GW BOUNDARY FLOW =             24.19

   INFLOWS - OUTFLOWS =       -1.6111D+07     INFLOWS - OUTFLOWS =         -67872.59
             --------                                   --------

 TOTAL STORAGE CHANGE =       -1.1653D+07         STORAGE CHANGE =         -67451.42
       --------------                             --------------
         LAND SURFACE =         267725.60           LAND SURFACE =         -12446.55
            SOIL ZONE =        1480148.86              SOIL ZONE =         -39556.03
     UNSATURATED ZONE =         -86649.78       UNSATURATED ZONE =          -8933.71
       SATURATED ZONE =       -1.3314D+07         SATURATED ZONE =          -6515.67

 OVERALL BUDGET ERROR =       -4458207.64           BUDGET ERROR =           -421.17


  PERCENT DISCREPANCY =             -3.02    PERCENT DISCREPANCY =             -0.62



1
 SUMMARY VOLUMETRIC BUDGET FOR GSFLOW 
 DATE: 09 17 1995              CUMULATIVE TIME STEP:      17
 MODFLOW STRESS PERIOD     61     CURRENT TIME STEP:    1813     ITERATIONS:       7

 -----------------------------------------------------------------------------------

   CUMULATIVE VOLUMES               L**3   RATES FOR THIS TIME STEP           L**3/T
   ------------------                      ------------------------

                                     IN                                         IN
                                     --                                         --
        PRECIPITATION =        1.3351D+08          PRECIPITATION =                  
           STREAMFLOW =                               STREAMFLOW =                  
     GW BOUNDARY FLOW =           5675.77       GW BOUNDARY FLOW =              3.66


                                    OUT                                        OUT
                                    ---                                        ---
   EVAPOTRANSPIRATION =        7.4914D+07     EVAPOTRANSPIRATION =          54482.59
           STREAMFLOW =        7.5191D+07             STREAMFLOW =           8164.06
     GW BOUNDARY FLOW =          51546.86       GW BOUNDARY FLOW =             24.09

   INFLOWS - OUTFLOWS =       -1.6642D+07     INFLOWS - OUTFLOWS =         -62667.07
             --------                                   --------

 TOTAL STORAGE CHANGE =       -1.2181D+07         STORAGE CHANGE =         -62276.42
       --------------                             --------------
         LAND SURFACE =         177960.28           LAND SURFACE =          -9479.42
            SOIL ZONE =        1167755.80              SOIL ZONE =         -35764.15
     UNSATURATED ZONE =        -153110.04       UNSATURATED ZONE =          -9287.34
       SATURATED ZONE =       -1.3374D+07         SATURATED ZONE =          -7746.06

 OVERALL BUDGET ERROR =       -4461319.32           BUDGET ERROR =           -390.65


  PERCENT DISCREPANCY =             -3.02    PERCENT DISCREPANCY =             -0.63



1
 SUMMARY VOLUMETRIC BUDGET FOR GSFLOW 
 DATE: 09 24 1995              CUMULATIVE TIME STEP:      24
 MODFLOW STRESS PERIOD     61     CURRENT TIME STEP:    1820     ITERATIONS:       7

 -----------------------------------------------------------------------------------

   CUMULATIVE VOLUMES               L**3   RATES FOR THIS TIME STEP           L**3/T
   ------------------                      ------------------------

                                     IN                                         IN
                                     --                                         --
        PRECIPITATION =        1.3351D+08          PRECIPITATION =                  
           STREAMFLOW =                               STREAMFLOW =                  
     GW BOUNDARY FLOW =           5701.73       GW BOUNDARY FLOW =              3.75


                                    OUT                                        OUT
                                    ---                                        ---
   EVAPOTRANSPIRATION =        7.5252D+07     EVAPOTRANSPIRATION =          34861.36
           STREAMFLOW =        7.5247D+07             STREAMFLOW =           8354.18
     GW BOUNDARY FLOW =          51715.35       GW BOUNDARY FLOW =             24.11

   INFLOWS - OUTFLOWS =       -1.7036D+07     INFLOWS - OUTFLOWS =         -43235.91
             --------                                   --------

 TOTAL STORAGE CHANGE =       -1.2572D+07         STORAGE CHANGE =         -42874.88
       --------------                             --------------
         LAND SURFACE =         123669.61           LAND SURFACE =          -5454.35
            SOIL ZONE =         946895.98              SOIL ZONE =         -22507.29
     UNSATURATED ZONE =        -213670.27       UNSATURATED ZONE =          -8216.72
       SATURATED ZONE =       -1.3429D+07         SATURATED ZONE =          -6697.06

 OVERALL BUDGET ERROR =       -4464080.61           BUDGET ERROR =           -361.03


  PERCENT DISCREPANCY =             -3.01    PERCENT DISCREPANCY =             -0.84



1
 SUMMARY VOLUMETRIC BUDGET FOR GSFLOW 
 DATE: 10 01 1995              CUMULATIVE TIME STEP:       1
 MODFLOW STRESS PERIOD     62     CURRENT TIME STEP:    1827     ITERATIONS:       6

 -----------------------------------------------------------------------------------

   CUMULATIVE VOLUMES               L**3   RATES FOR THIS TIME STEP           L**3/T
   ------------------                      ------------------------

                                     IN                                         IN
                                     --                                         --
        PRECIPITATION =        1.3351D+08          PRECIPITATION =                  
           STREAMFLOW =                               STREAMFLOW =                  
     GW BOUNDARY FLOW =           5728.28       GW BOUNDARY FLOW =              3.83


                                    OUT                                        OUT
                                    ---                                        ---
   EVAPOTRANSPIRATION =        7.5390D+07     EVAPOTRANSPIRATION =          20740.06
           STREAMFLOW =        7.5310D+07             STREAMFLOW =           9024.74
     GW BOUNDARY FLOW =          51884.64       GW BOUNDARY FLOW =             24.19

   INFLOWS - OUTFLOWS =       -1.7238D+07     INFLOWS - OUTFLOWS =         -29785.17
             --------                                   --------

 TOTAL STORAGE CHANGE =       -1.2772D+07         STORAGE CHANGE =         -29466.98
       --------------                             --------------
         LAND SURFACE =         100770.57           LAND SURFACE =          -2835.89
            SOIL ZONE =         860365.84              SOIL ZONE =         -13367.09
     UNSATURATED ZONE =        -266716.49       UNSATURATED ZONE =          -7501.37
       SATURATED ZONE =       -1.3467D+07         SATURATED ZONE =          -5763.16

 OVERALL BUDGET ERROR =       -4466293.39           BUDGET ERROR =           -318.19


  PERCENT DISCREPANCY =             -3.01    PERCENT DISCREPANCY =             -1.07



1
 SUMMARY VOLUMETRIC BUDGET FOR GSFLOW 
 DATE: 10 08 1995              CUMULATIVE TIME STEP:       8
 MODFLOW STRESS PERIOD     62     CURRENT TIME STEP:    1834     ITERATIONS:       6

 -----------------------------------------------------------------------------------

   CUMULATIVE VOLUMES               L**3   RATES FOR THIS TIME STEP           L**3/T
   ------------------                      ------------------------

                                     IN                                         IN
                                     --                                         --
        PRECIPITATION =        1.3351D+08          PRECIPITATION =                  
           STREAMFLOW =                               STREAMFLOW =                  
     GW BOUNDARY FLOW =           5755.37       GW BOUNDARY FLOW =              3.90


                                    OUT                                        OUT
                                    ---                                        ---
   EVAPOTRANSPIRATION =        7.5551D+07     EVAPOTRANSPIRATION =          20120.49
           STREAMFLOW =        7.5371D+07             STREAMFLOW =           8711.17
     GW BOUNDARY FLOW =          52053.84       GW BOUNDARY FLOW =             24.18

   INFLOWS - OUTFLOWS =       -1.7460D+07     INFLOWS - OUTFLOWS =         -28851.93
             --------                                   --------

 TOTAL STORAGE CHANGE =       -1.2991D+07         STORAGE CHANGE =         -28536.61
       --------------                             --------------
         LAND SURFACE =          80522.27           LAND SURFACE =          -2457.43
            SOIL ZONE =         758110.79              SOIL ZONE =         -12511.23
     UNSATURATED ZONE =        -318769.87       UNSATURATED ZONE =          -7277.31
       SATURATED ZONE =       -1.3512D+07         SATURATED ZONE =          -6291.18

 OVERALL BUDGET ERROR =       -4468566.62           BUDGET ERROR =           -315.32


  PERCENT DISCREPANCY =             -3.00    PERCENT DISCREPANCY =             -1.10



1
 SUMMARY VOLUMETRIC BUDGET FOR GSFLOW 
 DATE: 10 15 1995              CUMULATIVE TIME STEP:      15
 MODFLOW STRESS PERIOD     62     CURRENT TIME STEP:    1841     ITERATIONS:       6

 -----------------------------------------------------------------------------------

   CUMULATIVE VOLUMES               L**3   RATES FOR THIS TIME STEP           L**3/T
   ------------------                      ------------------------

                                     IN                                         IN
                                     --                                         --
        PRECIPITATION =        1.3351D+08          PRECIPITATION =                  
           STREAMFLOW =                               STREAMFLOW =                  
     GW BOUNDARY FLOW =           5782.95       GW BOUNDARY FLOW =              3.97


                                    OUT                                        OUT
                                    ---                                        ---
   EVAPOTRANSPIRATION =        7.5709D+07     EVAPOTRANSPIRATION =          25262.36
           STREAMFLOW =        7.5430D+07             STREAMFLOW =           8082.75
     GW BOUNDARY FLOW =          52222.97       GW BOUNDARY FLOW =             24.14

   INFLOWS - OUTFLOWS =       -1.7676D+07     INFLOWS - OUTFLOWS =         -33365.29
             --------                                   --------

 TOTAL STORAGE CHANGE =       -1.3206D+07         STORAGE CHANGE =         -33028.90
       --------------                             --------------
         LAND SURFACE =          62088.08           LAND SURFACE =          -2638.24
            SOIL ZONE =         662359.67              SOIL ZONE =         -15180.60
     UNSATURATED ZONE =        -370833.08       UNSATURATED ZONE =          -7607.85
       SATURATED ZONE =       -1.3560D+07         SATURATED ZONE =          -7602.75

 OVERALL BUDGET ERROR =       -4470851.60           BUDGET ERROR =           -336.38


  PERCENT DISCREPANCY =             -3.00    PERCENT DISCREPANCY =             -1.01



1
 SUMMARY VOLUMETRIC BUDGET FOR GSFLOW 
 DATE: 10 22 1995              CUMULATIVE TIME STEP:      22
 MODFLOW STRESS PERIOD     62     CURRENT TIME STEP:    1848     ITERATIONS:       7

 -----------------------------------------------------------------------------------

   CUMULATIVE VOLUMES               L**3   RATES FOR THIS TIME STEP           L**3/T
   ------------------                      ------------------------

                                     IN                                         IN
                                     --                                         --
        PRECIPITATION =        1.3351D+08          PRECIPITATION =                  
           STREAMFLOW =                               STREAMFLOW =                  
     GW BOUNDARY FLOW =           5811.00       GW BOUNDARY FLOW =              4.04


                                    OUT                                        OUT
                                    ---                                        ---
   EVAPOTRANSPIRATION =        7.5850D+07     EVAPOTRANSPIRATION =           5886.76
           STREAMFLOW =        7.5487D+07             STREAMFLOW =           9250.29
     GW BOUNDARY FLOW =          52392.09       GW BOUNDARY FLOW =             24.25

   INFLOWS - OUTFLOWS =       -1.7876D+07     INFLOWS - OUTFLOWS =         -15157.26
             --------                                   --------

 TOTAL STORAGE CHANGE =       -1.3403D+07         STORAGE CHANGE =         -14905.07
       --------------                             --------------
         LAND SURFACE =          48265.30           LAND SURFACE =           -654.57
            SOIL ZONE =         578712.49              SOIL ZONE =          -3481.57
     UNSATURATED ZONE =        -420714.88       UNSATURATED ZONE =          -6236.53
       SATURATED ZONE =       -1.3610D+07         SATURATED ZONE =          -4532.94

 OVERALL BUDGET ERROR =       -4473062.26           BUDGET ERROR =           -252.19


  PERCENT DISCREPANCY =             -3.00    PERCENT DISCREPANCY =             -1.68



1
 SUMMARY VOLUMETRIC BUDGET FOR GSFLOW 
 DATE: 10 29 1995              CUMULATIVE TIME STEP:      29
 MODFLOW STRESS PERIOD     62     CURRENT TIME STEP:    1855     ITERATIONS:       5

 -----------------------------------------------------------------------------------

   CUMULATIVE VOLUMES               L**3   RATES FOR THIS TIME STEP           L**3/T
   ------------------                      ------------------------

                                     IN                                         IN
                                     --                                         --
        PRECIPITATION =        1.3351D+08          PRECIPITATION =                  
           STREAMFLOW =                               STREAMFLOW =                  
     GW BOUNDARY FLOW =           5839.58       GW BOUNDARY FLOW =              4.12


                                    OUT                                        OUT
                                    ---                                        ---
   EVAPOTRANSPIRATION =        7.5936D+07     EVAPOTRANSPIRATION =          14930.81
           STREAMFLOW =        7.5548D+07             STREAMFLOW =           8369.04
     GW BOUNDARY FLOW =          52561.61       GW BOUNDARY FLOW =             24.20

   INFLOWS - OUTFLOWS =       -1.8023D+07     INFLOWS - OUTFLOWS =         -23319.93
             --------                                   --------

 TOTAL STORAGE CHANGE =       -1.3547D+07         STORAGE CHANGE =         -23014.08
       --------------                             --------------
         LAND SURFACE =          42120.00           LAND SURFACE =          -1365.71
            SOIL ZONE =         528883.84              SOIL ZONE =          -8213.52
     UNSATURATED ZONE =        -466219.66       UNSATURATED ZONE =          -6510.21
       SATURATED ZONE =       -1.3653D+07         SATURATED ZONE =          -6925.18

 OVERALL BUDGET ERROR =       -4475138.93           BUDGET ERROR =           -305.85


  PERCENT DISCREPANCY =             -3.00    PERCENT DISCREPANCY =             -1.32



