1
 SUMMARY VOLUMETRIC BUDGET FOR GSFLOW 
 DATE: 10 07 1990              CUMULATIVE TIME STEP:       7
 MODFLOW STRESS PERIOD      2     CURRENT TIME STEP:       7     ITERATIONS:       7

 -----------------------------------------------------------------------------------

   CUMULATIVE VOLUMES               L**3   RATES FOR THIS TIME STEP           L**3/T
   ------------------                      ------------------------

                                     IN                                         IN
                                     --                                         --
        PRECIPITATION =                            PRECIPITATION =                  
           STREAMFLOW =                               STREAMFLOW =                  
     GW BOUNDARY FLOW =                         GW BOUNDARY FLOW =                  


                                    OUT                                        OUT
                                    ---                                        ---
   EVAPOTRANSPIRATION =         385017.29     EVAPOTRANSPIRATION =          11800.56
           STREAMFLOW =          45618.09             STREAMFLOW =           8122.74
     GW BOUNDARY FLOW =            252.77       GW BOUNDARY FLOW =             36.30

   INFLOWS - OUTFLOWS =        -430888.16     INFLOWS - OUTFLOWS =         -19959.60
             --------                                   --------

 TOTAL STORAGE CHANGE =        -429294.35         STORAGE CHANGE =         -19931.62
       --------------                             --------------
         LAND SURFACE =                             LAND SURFACE =                  
            SOIL ZONE =         -33383.80              SOIL ZONE =           -943.76
     UNSATURATED ZONE =        -502284.98       UNSATURATED ZONE =         -33330.53
       SATURATED ZONE =         106374.43         SATURATED ZONE =          14342.66

 OVERALL BUDGET ERROR =          -1593.80           BUDGET ERROR =            -27.98


  PERCENT DISCREPANCY =             -0.37    PERCENT DISCREPANCY =             -0.14



1
 SUMMARY VOLUMETRIC BUDGET FOR GSFLOW 
 DATE: 10 14 1990              CUMULATIVE TIME STEP:      14
 MODFLOW STRESS PERIOD      2     CURRENT TIME STEP:      14     ITERATIONS:       6

 -----------------------------------------------------------------------------------

   CUMULATIVE VOLUMES               L**3   RATES FOR THIS TIME STEP           L**3/T
   ------------------                      ------------------------

                                     IN                                         IN
                                     --                                         --
        PRECIPITATION =                            PRECIPITATION =                  
           STREAMFLOW =                               STREAMFLOW =                  
     GW BOUNDARY FLOW =                         GW BOUNDARY FLOW =                  


                                    OUT                                        OUT
                                    ---                                        ---
   EVAPOTRANSPIRATION =         665199.47     EVAPOTRANSPIRATION =          42294.07
           STREAMFLOW =         100291.53             STREAMFLOW =           7407.89
     GW BOUNDARY FLOW =            506.61       GW BOUNDARY FLOW =             36.24

   INFLOWS - OUTFLOWS =        -765997.61     INFLOWS - OUTFLOWS =         -49738.21
             --------                                   --------

 TOTAL STORAGE CHANGE =        -764031.06         STORAGE CHANGE =         -49701.11
       --------------                             --------------
         LAND SURFACE =                             LAND SURFACE =                  
            SOIL ZONE =         -58194.30              SOIL ZONE =          -4382.14
     UNSATURATED ZONE =        -877175.98       UNSATURATED ZONE =         -52122.24
       SATURATED ZONE =         171339.23         SATURATED ZONE =           6803.26

 OVERALL BUDGET ERROR =          -1966.55           BUDGET ERROR =            -37.09


  PERCENT DISCREPANCY =             -0.26    PERCENT DISCREPANCY =             -0.07



1
 SUMMARY VOLUMETRIC BUDGET FOR GSFLOW 
 DATE: 10 21 1990              CUMULATIVE TIME STEP:      21
 MODFLOW STRESS PERIOD      2     CURRENT TIME STEP:      21     ITERATIONS:       6

 -----------------------------------------------------------------------------------

   CUMULATIVE VOLUMES               L**3   RATES FOR THIS TIME STEP           L**3/T
   ------------------                      ------------------------

                                     IN                                         IN
                                     --                                         --
        PRECIPITATION =         188432.87          PRECIPITATION =                  
           STREAMFLOW =                               STREAMFLOW =                  
     GW BOUNDARY FLOW =                         GW BOUNDARY FLOW =                  


                                    OUT                                        OUT
                                    ---                                        ---
   EVAPOTRANSPIRATION =         815608.79     EVAPOTRANSPIRATION =          41836.91
           STREAMFLOW =         163012.51             STREAMFLOW =          10136.34
     GW BOUNDARY FLOW =            760.79       GW BOUNDARY FLOW =             36.37

   INFLOWS - OUTFLOWS =        -790949.22     INFLOWS - OUTFLOWS =         -52009.61
             --------                                   --------

 TOTAL STORAGE CHANGE =        -790169.47         STORAGE CHANGE =         -52000.80
       --------------                             --------------
         LAND SURFACE =          18885.57           LAND SURFACE =         -43558.49
            SOIL ZONE =          47305.92              SOIL ZONE =           2013.92
     UNSATURATED ZONE =       -1091205.36       UNSATURATED ZONE =         -21425.58
       SATURATED ZONE =         234844.41         SATURATED ZONE =          10969.35

 OVERALL BUDGET ERROR =           -779.75           BUDGET ERROR =             -8.81


  PERCENT DISCREPANCY =             -0.08    PERCENT DISCREPANCY =             -0.02



1
 SUMMARY VOLUMETRIC BUDGET FOR GSFLOW 
 DATE: 10 28 1990              CUMULATIVE TIME STEP:      28
 MODFLOW STRESS PERIOD      2     CURRENT TIME STEP:      28     ITERATIONS:       6

 -----------------------------------------------------------------------------------

   CUMULATIVE VOLUMES               L**3   RATES FOR THIS TIME STEP           L**3/T
   ------------------                      ------------------------

                                     IN                                         IN
                                     --                                         --
        PRECIPITATION =         188432.87          PRECIPITATION =                  
           STREAMFLOW =                               STREAMFLOW =                  
     GW BOUNDARY FLOW =                         GW BOUNDARY FLOW =                  


                                    OUT                                        OUT
                                    ---                                        ---
   EVAPOTRANSPIRATION =         944439.35     EVAPOTRANSPIRATION =          11827.86
           STREAMFLOW =         224348.81             STREAMFLOW =           8908.01
     GW BOUNDARY FLOW =           1013.98       GW BOUNDARY FLOW =             36.12

   INFLOWS - OUTFLOWS =        -981369.27     INFLOWS - OUTFLOWS =         -20771.99
             --------                                   --------

 TOTAL STORAGE CHANGE =        -980475.30         STORAGE CHANGE =         -20762.18
       --------------                             --------------
         LAND SURFACE =                             LAND SURFACE =                  
            SOIL ZONE =          18261.82              SOIL ZONE =          -3430.22
     UNSATURATED ZONE =       -1275147.97       UNSATURATED ZONE =         -23287.25
       SATURATED ZONE =         276410.85         SATURATED ZONE =           5955.29

 OVERALL BUDGET ERROR =           -893.98           BUDGET ERROR =             -9.81


  PERCENT DISCREPANCY =             -0.08    PERCENT DISCREPANCY =             -0.05



1
 SUMMARY VOLUMETRIC BUDGET FOR GSFLOW 
 DATE: 11 04 1990              CUMULATIVE TIME STEP:       4
 MODFLOW STRESS PERIOD      3     CURRENT TIME STEP:      35     ITERATIONS:       6

 -----------------------------------------------------------------------------------

   CUMULATIVE VOLUMES               L**3   RATES FOR THIS TIME STEP           L**3/T
   ------------------                      ------------------------

                                     IN                                         IN
                                     --                                         --
        PRECIPITATION =         703113.06          PRECIPITATION =                  
           STREAMFLOW =                               STREAMFLOW =                  
     GW BOUNDARY FLOW =                         GW BOUNDARY FLOW =                  


                                    OUT                                        OUT
                                    ---                                        ---
   EVAPOTRANSPIRATION =        1005140.03     EVAPOTRANSPIRATION =          26361.53
           STREAMFLOW =         294839.67             STREAMFLOW =          10626.51
     GW BOUNDARY FLOW =           1267.02       GW BOUNDARY FLOW =             36.14

   INFLOWS - OUTFLOWS =        -598133.66     INFLOWS - OUTFLOWS =         -37024.18
             --------                                   --------

 TOTAL STORAGE CHANGE =        -602406.67         STORAGE CHANGE =         -38302.65
       --------------                             --------------
         LAND SURFACE =         132159.65           LAND SURFACE =        -160480.33
            SOIL ZONE =         349910.66              SOIL ZONE =         132879.66
     UNSATURATED ZONE =       -1421002.46       UNSATURATED ZONE =         -20131.38
       SATURATED ZONE =         336525.48         SATURATED ZONE =           9429.40

 OVERALL BUDGET ERROR =           4273.01           BUDGET ERROR =           1278.46

  ***WARNING, FLUX RATES OFF > 3%

  PERCENT DISCREPANCY =              0.33    PERCENT DISCREPANCY =              3.39



1
 SUMMARY VOLUMETRIC BUDGET FOR GSFLOW 
 DATE: 11 11 1990              CUMULATIVE TIME STEP:      11
 MODFLOW STRESS PERIOD      3     CURRENT TIME STEP:      42     ITERATIONS:       6

 -----------------------------------------------------------------------------------

   CUMULATIVE VOLUMES               L**3   RATES FOR THIS TIME STEP           L**3/T
   ------------------                      ------------------------

                                     IN                                         IN
                                     --                                         --
        PRECIPITATION =         703113.06          PRECIPITATION =                  
           STREAMFLOW =                               STREAMFLOW =                  
     GW BOUNDARY FLOW =                         GW BOUNDARY FLOW =                  


                                    OUT                                        OUT
                                    ---                                        ---
   EVAPOTRANSPIRATION =        1082561.02     EVAPOTRANSPIRATION =          12158.08
           STREAMFLOW =         365832.95             STREAMFLOW =           9633.63
     GW BOUNDARY FLOW =           1519.12       GW BOUNDARY FLOW =             35.92

   INFLOWS - OUTFLOWS =        -746800.03     INFLOWS - OUTFLOWS =         -21827.64
             --------                                   --------

 TOTAL STORAGE CHANGE =        -751180.77         STORAGE CHANGE =         -21816.78
       --------------                             --------------
         LAND SURFACE =            595.09           LAND SURFACE =          -1416.54
            SOIL ZONE =         422043.81              SOIL ZONE =          -5448.95
     UNSATURATED ZONE =       -1560640.69       UNSATURATED ZONE =         -19918.28
       SATURATED ZONE =         386820.99         SATURATED ZONE =           4966.98

 OVERALL BUDGET ERROR =           4380.74           BUDGET ERROR =            -10.86


  PERCENT DISCREPANCY =              0.30    PERCENT DISCREPANCY =             -0.05



1
 SUMMARY VOLUMETRIC BUDGET FOR GSFLOW 
 DATE: 11 18 1990              CUMULATIVE TIME STEP:      18
 MODFLOW STRESS PERIOD      3     CURRENT TIME STEP:      49     ITERATIONS:       6

 -----------------------------------------------------------------------------------

   CUMULATIVE VOLUMES               L**3   RATES FOR THIS TIME STEP           L**3/T
   ------------------                      ------------------------

                                     IN                                         IN
                                     --                                         --
        PRECIPITATION =         747883.35          PRECIPITATION =                  
           STREAMFLOW =                               STREAMFLOW =                  
     GW BOUNDARY FLOW =                         GW BOUNDARY FLOW =                  


                                    OUT                                        OUT
                                    ---                                        ---
   EVAPOTRANSPIRATION =        1155132.32     EVAPOTRANSPIRATION =           5079.50
           STREAMFLOW =         437459.04             STREAMFLOW =          10657.11
     GW BOUNDARY FLOW =           1770.44       GW BOUNDARY FLOW =             35.88

   INFLOWS - OUTFLOWS =        -846478.44     INFLOWS - OUTFLOWS =         -15772.48
             --------                                   --------

 TOTAL STORAGE CHANGE =        -850844.19         STORAGE CHANGE =         -15776.00
       --------------                             --------------
         LAND SURFACE =           7868.08           LAND SURFACE =          -3691.47
            SOIL ZONE =         404073.46              SOIL ZONE =           -743.74
     UNSATURATED ZONE =       -1694244.36       UNSATURATED ZONE =         -18666.75
       SATURATED ZONE =         431458.59         SATURATED ZONE =           7325.96

 OVERALL BUDGET ERROR =           4365.75           BUDGET ERROR =              3.51


  PERCENT DISCREPANCY =              0.27    PERCENT DISCREPANCY =              0.02



1
 SUMMARY VOLUMETRIC BUDGET FOR GSFLOW 
 DATE: 11 25 1990              CUMULATIVE TIME STEP:      25
 MODFLOW STRESS PERIOD      3     CURRENT TIME STEP:      56     ITERATIONS:       6

 -----------------------------------------------------------------------------------

   CUMULATIVE VOLUMES               L**3   RATES FOR THIS TIME STEP           L**3/T
   ------------------                      ------------------------

                                     IN                                         IN
                                     --                                         --
        PRECIPITATION =        1009043.38          PRECIPITATION =         186542.88
           STREAMFLOW =                               STREAMFLOW =                  
     GW BOUNDARY FLOW =                         GW BOUNDARY FLOW =                  


                                    OUT                                        OUT
                                    ---                                        ---
   EVAPOTRANSPIRATION =        1215740.36     EVAPOTRANSPIRATION =           3755.39
           STREAMFLOW =         513371.96             STREAMFLOW =          10862.25
     GW BOUNDARY FLOW =           2021.38       GW BOUNDARY FLOW =             35.79

   INFLOWS - OUTFLOWS =        -722090.32     INFLOWS - OUTFLOWS =         171889.44
             --------                                   --------

 TOTAL STORAGE CHANGE =        -728635.62         STORAGE CHANGE =         169964.39
       --------------                             --------------
         LAND SURFACE =          86180.68           LAND SURFACE =          69567.13
            SOIL ZONE =         526113.27              SOIL ZONE =         112016.06
     UNSATURATED ZONE =       -1822286.73       UNSATURATED ZONE =         -17965.65
       SATURATED ZONE =         481357.10         SATURATED ZONE =           6346.85

 OVERALL BUDGET ERROR =           6545.30           BUDGET ERROR =           1925.06


  PERCENT DISCREPANCY =              0.38    PERCENT DISCREPANCY =              1.04



1
 SUMMARY VOLUMETRIC BUDGET FOR GSFLOW 
 DATE: 12 02 1990              CUMULATIVE TIME STEP:       2
 MODFLOW STRESS PERIOD      4     CURRENT TIME STEP:      63     ITERATIONS:       6

 -----------------------------------------------------------------------------------

   CUMULATIVE VOLUMES               L**3   RATES FOR THIS TIME STEP           L**3/T
   ------------------                      ------------------------

                                     IN                                         IN
                                     --                                         --
        PRECIPITATION =        1449284.55          PRECIPITATION =                  
           STREAMFLOW =                               STREAMFLOW =                  
     GW BOUNDARY FLOW =                         GW BOUNDARY FLOW =                  


                                    OUT                                        OUT
                                    ---                                        ---
   EVAPOTRANSPIRATION =        1222257.39     EVAPOTRANSPIRATION =            236.02
           STREAMFLOW =         590492.48             STREAMFLOW =          11058.18
     GW BOUNDARY FLOW =           2271.86       GW BOUNDARY FLOW =             35.77

   INFLOWS - OUTFLOWS =        -365737.18     INFLOWS - OUTFLOWS =         -11329.97
             --------                                   --------

 TOTAL STORAGE CHANGE =        -373418.27         STORAGE CHANGE =         -11339.01
       --------------                             --------------
         LAND SURFACE =         486845.62           LAND SURFACE =           -339.04
            SOIL ZONE =         558394.07              SOIL ZONE =            150.65
     UNSATURATED ZONE =       -1945530.76       UNSATURATED ZONE =         -17311.56
       SATURATED ZONE =         526872.71         SATURATED ZONE =           6160.94

 OVERALL BUDGET ERROR =           7681.09           BUDGET ERROR =              9.04


  PERCENT DISCREPANCY =              0.42    PERCENT DISCREPANCY =              0.08



1
 SUMMARY VOLUMETRIC BUDGET FOR GSFLOW 
 DATE: 12 09 1990              CUMULATIVE TIME STEP:       9
 MODFLOW STRESS PERIOD      4     CURRENT TIME STEP:      70     ITERATIONS:       6

 -----------------------------------------------------------------------------------

   CUMULATIVE VOLUMES               L**3   RATES FOR THIS TIME STEP           L**3/T
   ------------------                      ------------------------

                                     IN                                         IN
                                     --                                         --
        PRECIPITATION =        1449284.55          PRECIPITATION =                  
           STREAMFLOW =                               STREAMFLOW =                  
     GW BOUNDARY FLOW =                         GW BOUNDARY FLOW =                  


                                    OUT                                        OUT
                                    ---                                        ---
   EVAPOTRANSPIRATION =        1298352.56     EVAPOTRANSPIRATION =          13900.77
           STREAMFLOW =         668123.00             STREAMFLOW =          10906.69
     GW BOUNDARY FLOW =           2521.82       GW BOUNDARY FLOW =             35.65

   INFLOWS - OUTFLOWS =        -519712.83     INFLOWS - OUTFLOWS =         -24843.11
             --------                                   --------

 TOTAL STORAGE CHANGE =        -531894.16         STORAGE CHANGE =         -24937.78
       --------------                             --------------
         LAND SURFACE =          67215.41           LAND SURFACE =         -45889.70
            SOIL ZONE =         900822.50              SOIL ZONE =          33512.89
     UNSATURATED ZONE =       -2063770.52       UNSATURATED ZONE =         -16536.26
       SATURATED ZONE =         563838.33         SATURATED ZONE =           3975.28

 OVERALL BUDGET ERROR =          12181.33           BUDGET ERROR =             94.67


  PERCENT DISCREPANCY =              0.62    PERCENT DISCREPANCY =              0.38



1
 SUMMARY VOLUMETRIC BUDGET FOR GSFLOW 
 DATE: 12 16 1990              CUMULATIVE TIME STEP:      16
 MODFLOW STRESS PERIOD      4     CURRENT TIME STEP:      77     ITERATIONS:       5

 -----------------------------------------------------------------------------------

   CUMULATIVE VOLUMES               L**3   RATES FOR THIS TIME STEP           L**3/T
   ------------------                      ------------------------

                                     IN                                         IN
                                     --                                         --
        PRECIPITATION =        1804962.84          PRECIPITATION =                  
           STREAMFLOW =                               STREAMFLOW =                  
     GW BOUNDARY FLOW =                         GW BOUNDARY FLOW =                  


                                    OUT                                        OUT
                                    ---                                        ---
   EVAPOTRANSPIRATION =        1326691.05     EVAPOTRANSPIRATION =                  
           STREAMFLOW =         747703.33             STREAMFLOW =          11499.58
     GW BOUNDARY FLOW =           2771.23       GW BOUNDARY FLOW =             35.61

   INFLOWS - OUTFLOWS =        -272202.78     INFLOWS - OUTFLOWS =         -11535.19
             --------                                   --------

 TOTAL STORAGE CHANGE =        -286698.75         STORAGE CHANGE =         -11546.47
       --------------                             --------------
         LAND SURFACE =         252566.27           LAND SURFACE =                  
            SOIL ZONE =        1043222.75              SOIL ZONE =            -19.11
     UNSATURATED ZONE =       -2177451.36       UNSATURATED ZONE =         -15979.17
       SATURATED ZONE =         594963.43         SATURATED ZONE =           4451.80

 OVERALL BUDGET ERROR =          14495.98           BUDGET ERROR =             11.28


  PERCENT DISCREPANCY =              0.70    PERCENT DISCREPANCY =              0.10



1
 SUMMARY VOLUMETRIC BUDGET FOR GSFLOW 
 DATE: 12 23 1990              CUMULATIVE TIME STEP:      23
 MODFLOW STRESS PERIOD      4     CURRENT TIME STEP:      84     ITERATIONS:       6

 -----------------------------------------------------------------------------------

   CUMULATIVE VOLUMES               L**3   RATES FOR THIS TIME STEP           L**3/T
   ------------------                      ------------------------

                                     IN                                         IN
                                     --                                         --
        PRECIPITATION =        2276236.55          PRECIPITATION =                  
           STREAMFLOW =                               STREAMFLOW =                  
     GW BOUNDARY FLOW =              0.08       GW BOUNDARY FLOW =              0.04


                                    OUT                                        OUT
                                    ---                                        ---
   EVAPOTRANSPIRATION =        1327753.01     EVAPOTRANSPIRATION =                  
           STREAMFLOW =         828385.79             STREAMFLOW =          11548.85
     GW BOUNDARY FLOW =           3020.26       GW BOUNDARY FLOW =             35.57

   INFLOWS - OUTFLOWS =         117077.56     INFLOWS - OUTFLOWS =         -11584.38
             --------                                   --------

 TOTAL STORAGE CHANGE =         102512.43         STORAGE CHANGE =         -11593.89
       --------------                             --------------
         LAND SURFACE =         722784.34           LAND SURFACE =                  
            SOIL ZONE =        1043415.00              SOIL ZONE =             55.32
     UNSATURATED ZONE =       -2286957.82       UNSATURATED ZONE =         -15399.58
       SATURATED ZONE =         623270.71         SATURATED ZONE =           3750.38

 OVERALL BUDGET ERROR =          14565.13           BUDGET ERROR =              9.51


  PERCENT DISCREPANCY =              0.64    PERCENT DISCREPANCY =              0.08



1
 SUMMARY VOLUMETRIC BUDGET FOR GSFLOW 
 DATE: 12 30 1990              CUMULATIVE TIME STEP:      30
 MODFLOW STRESS PERIOD      4     CURRENT TIME STEP:      91     ITERATIONS:       5

 -----------------------------------------------------------------------------------

   CUMULATIVE VOLUMES               L**3   RATES FOR THIS TIME STEP           L**3/T
   ------------------                      ------------------------

                                     IN                                         IN
                                     --                                         --
        PRECIPITATION =        2276236.55          PRECIPITATION =                  
           STREAMFLOW =                               STREAMFLOW =                  
     GW BOUNDARY FLOW =              0.77       GW BOUNDARY FLOW =              0.14


                                    OUT                                        OUT
                                    ---                                        ---
   EVAPOTRANSPIRATION =        1328323.17     EVAPOTRANSPIRATION =                  
           STREAMFLOW =         909495.89             STREAMFLOW =          11619.00
     GW BOUNDARY FLOW =           3269.37       GW BOUNDARY FLOW =             35.60

   INFLOWS - OUTFLOWS =          35148.89     INFLOWS - OUTFLOWS =         -11654.46
             --------                                   --------

 TOTAL STORAGE CHANGE =          20524.65         STORAGE CHANGE =         -11662.63
       --------------                             --------------
         LAND SURFACE =         722216.94           LAND SURFACE =                  
            SOIL ZONE =        1043992.70              SOIL ZONE =            100.63
     UNSATURATED ZONE =       -2392558.04       UNSATURATED ZONE =         -14855.58
       SATURATED ZONE =         646872.82         SATURATED ZONE =           3092.32

 OVERALL BUDGET ERROR =          14624.24           BUDGET ERROR =              8.17


  PERCENT DISCREPANCY =              0.64    PERCENT DISCREPANCY =              0.07



1
 SUMMARY VOLUMETRIC BUDGET FOR GSFLOW 
 DATE: 01 06 1991              CUMULATIVE TIME STEP:       6
 MODFLOW STRESS PERIOD      5     CURRENT TIME STEP:      98     ITERATIONS:       5

 -----------------------------------------------------------------------------------

   CUMULATIVE VOLUMES               L**3   RATES FOR THIS TIME STEP           L**3/T
   ------------------                      ------------------------

                                     IN                                         IN
                                     --                                         --
        PRECIPITATION =        2276236.55          PRECIPITATION =                  
           STREAMFLOW =                               STREAMFLOW =                  
     GW BOUNDARY FLOW =              2.09       GW BOUNDARY FLOW =              0.22


                                    OUT                                        OUT
                                    ---                                        ---
   EVAPOTRANSPIRATION =        1355406.87     EVAPOTRANSPIRATION =           3191.05
           STREAMFLOW =         991272.46             STREAMFLOW =          11723.36
     GW BOUNDARY FLOW =           3519.25       GW BOUNDARY FLOW =             35.75

   INFLOWS - OUTFLOWS =         -73959.95     INFLOWS - OUTFLOWS =         -14949.94
             --------                                   --------

 TOTAL STORAGE CHANGE =         -91212.21         STORAGE CHANGE =         -15084.35
       --------------                             --------------
         LAND SURFACE =         592099.78           LAND SURFACE =          -8106.31
            SOIL ZONE =        1145209.51              SOIL ZONE =           4886.45
     UNSATURATED ZONE =       -2494211.20       UNSATURATED ZONE =         -14291.57
       SATURATED ZONE =         665689.42         SATURATED ZONE =           2427.07

 OVERALL BUDGET ERROR =          17252.27           BUDGET ERROR =            134.41


  PERCENT DISCREPANCY =              0.73    PERCENT DISCREPANCY =              0.90



1
 SUMMARY VOLUMETRIC BUDGET FOR GSFLOW 
 DATE: 01 13 1991              CUMULATIVE TIME STEP:      13
 MODFLOW STRESS PERIOD      5     CURRENT TIME STEP:     105     ITERATIONS:       6

 -----------------------------------------------------------------------------------

   CUMULATIVE VOLUMES               L**3   RATES FOR THIS TIME STEP           L**3/T
   ------------------                      ------------------------

                                     IN                                         IN
                                     --                                         --
        PRECIPITATION =        2596386.94          PRECIPITATION =          10327.43
           STREAMFLOW =                               STREAMFLOW =                  
     GW BOUNDARY FLOW =              4.01       GW BOUNDARY FLOW =              0.31


                                    OUT                                        OUT
                                    ---                                        ---
   EVAPOTRANSPIRATION =        1422349.93     EVAPOTRANSPIRATION =          18637.28
           STREAMFLOW =        1073470.36             STREAMFLOW =          11719.82
     GW BOUNDARY FLOW =           3769.48       GW BOUNDARY FLOW =             35.73

   INFLOWS - OUTFLOWS =          96801.19     INFLOWS - OUTFLOWS =         -20065.08
             --------                                   --------

 TOTAL STORAGE CHANGE =          74442.91         STORAGE CHANGE =         -21334.29
       --------------                             --------------
         LAND SURFACE =         529885.08           LAND SURFACE =        -135264.70
            SOIL ZONE =        1457470.86              SOIL ZONE =         126487.22
     UNSATURATED ZONE =       -2591810.98       UNSATURATED ZONE =         -13730.34
       SATURATED ZONE =         678897.63         SATURATED ZONE =           1173.53

 OVERALL BUDGET ERROR =          22358.28           BUDGET ERROR =           1269.21

  ***WARNING, FLUX RATES OFF > 3%

  PERCENT DISCREPANCY =              0.86    PERCENT DISCREPANCY =              4.09



1
 SUMMARY VOLUMETRIC BUDGET FOR GSFLOW 
 DATE: 01 20 1991              CUMULATIVE TIME STEP:      20
 MODFLOW STRESS PERIOD      5     CURRENT TIME STEP:     112     ITERATIONS:       5

 -----------------------------------------------------------------------------------

   CUMULATIVE VOLUMES               L**3   RATES FOR THIS TIME STEP           L**3/T
   ------------------                      ------------------------

                                     IN                                         IN
                                     --                                         --
        PRECIPITATION =        2596386.94          PRECIPITATION =                  
           STREAMFLOW =                               STREAMFLOW =                  
     GW BOUNDARY FLOW =              6.54       GW BOUNDARY FLOW =              0.40


                                    OUT                                        OUT
                                    ---                                        ---
   EVAPOTRANSPIRATION =        1499723.07     EVAPOTRANSPIRATION =           2462.39
           STREAMFLOW =        1156537.19             STREAMFLOW =          11885.48
     GW BOUNDARY FLOW =           4019.73       GW BOUNDARY FLOW =             35.75

   INFLOWS - OUTFLOWS =         -63886.51     INFLOWS - OUTFLOWS =         -14383.22
             --------                                   --------

 TOTAL STORAGE CHANGE =         -87020.47         STORAGE CHANGE =         -14378.64
       --------------                             --------------
         LAND SURFACE =         356897.61           LAND SURFACE =           -433.81
            SOIL ZONE =        1553056.30              SOIL ZONE =          -1963.33
     UNSATURATED ZONE =       -2685516.31       UNSATURATED ZONE =         -13167.48
       SATURATED ZONE =         688541.54         SATURATED ZONE =           1185.97

 OVERALL BUDGET ERROR =          23133.96           BUDGET ERROR =             -4.58


  PERCENT DISCREPANCY =              0.87    PERCENT DISCREPANCY =             -0.03



1
 SUMMARY VOLUMETRIC BUDGET FOR GSFLOW 
 DATE: 01 27 1991              CUMULATIVE TIME STEP:      27
 MODFLOW STRESS PERIOD      5     CURRENT TIME STEP:     119     ITERATIONS:       5

 -----------------------------------------------------------------------------------

   CUMULATIVE VOLUMES               L**3   RATES FOR THIS TIME STEP           L**3/T
   ------------------                      ------------------------

                                     IN                                         IN
                                     --                                         --
        PRECIPITATION =        2596386.94          PRECIPITATION =                  
           STREAMFLOW =                               STREAMFLOW =                  
     GW BOUNDARY FLOW =              9.65       GW BOUNDARY FLOW =              0.48


                                    OUT                                        OUT
                                    ---                                        ---
   EVAPOTRANSPIRATION =        1525622.98     EVAPOTRANSPIRATION =           1702.90
           STREAMFLOW =        1239733.00             STREAMFLOW =          11907.19
     GW BOUNDARY FLOW =           4269.94       GW BOUNDARY FLOW =             35.74

   INFLOWS - OUTFLOWS =        -173229.32     INFLOWS - OUTFLOWS =         -13645.35
             --------                                   --------

 TOTAL STORAGE CHANGE =        -196571.28         STORAGE CHANGE =         -13655.30
       --------------                             --------------
         LAND SURFACE =         323033.10           LAND SURFACE =           -547.84
            SOIL ZONE =        1561701.34              SOIL ZONE =          -1066.78
     UNSATURATED ZONE =       -2775731.14       UNSATURATED ZONE =         -12671.96
       SATURATED ZONE =         694424.99         SATURATED ZONE =            631.27

 OVERALL BUDGET ERROR =          23341.95           BUDGET ERROR =              9.95


  PERCENT DISCREPANCY =              0.84    PERCENT DISCREPANCY =              0.07



1
 SUMMARY VOLUMETRIC BUDGET FOR GSFLOW 
 DATE: 02 03 1991              CUMULATIVE TIME STEP:       3
 MODFLOW STRESS PERIOD      6     CURRENT TIME STEP:     126     ITERATIONS:       6

 -----------------------------------------------------------------------------------

   CUMULATIVE VOLUMES               L**3   RATES FOR THIS TIME STEP           L**3/T
   ------------------                      ------------------------

                                     IN                                         IN
                                     --                                         --
        PRECIPITATION =        3228422.31          PRECIPITATION =          30459.53
           STREAMFLOW =                               STREAMFLOW =                  
     GW BOUNDARY FLOW =             13.31       GW BOUNDARY FLOW =              0.55


                                    OUT                                        OUT
                                    ---                                        ---
   EVAPOTRANSPIRATION =        1632638.70     EVAPOTRANSPIRATION =          21403.93
           STREAMFLOW =        1324516.20             STREAMFLOW =          12211.85
     GW BOUNDARY FLOW =           4520.06       GW BOUNDARY FLOW =             35.74

   INFLOWS - OUTFLOWS =         266760.66     INFLOWS - OUTFLOWS =          -3191.42
             --------                                   --------

 TOTAL STORAGE CHANGE =         236277.96         STORAGE CHANGE =          -3468.97
       --------------                             --------------
         LAND SURFACE =         157683.43           LAND SURFACE =         -26376.34
            SOIL ZONE =        2245220.85              SOIL ZONE =          35088.22
     UNSATURATED ZONE =       -2862588.50       UNSATURATED ZONE =         -12246.30
       SATURATED ZONE =         695961.67         SATURATED ZONE =             65.44

 OVERALL BUDGET ERROR =          30482.70           BUDGET ERROR =            277.54


  PERCENT DISCREPANCY =              0.95    PERCENT DISCREPANCY =              0.82



1
 SUMMARY VOLUMETRIC BUDGET FOR GSFLOW 
 DATE: 02 10 1991              CUMULATIVE TIME STEP:      10
 MODFLOW STRESS PERIOD      6     CURRENT TIME STEP:     133     ITERATIONS:       5

 -----------------------------------------------------------------------------------

   CUMULATIVE VOLUMES               L**3   RATES FOR THIS TIME STEP           L**3/T
   ------------------                      ------------------------

                                     IN                                         IN
                                     --                                         --
        PRECIPITATION =        3510173.01          PRECIPITATION =                  
           STREAMFLOW =                               STREAMFLOW =                  
     GW BOUNDARY FLOW =             17.48       GW BOUNDARY FLOW =              0.63


                                    OUT                                        OUT
                                    ---                                        ---
   EVAPOTRANSPIRATION =        1800419.71     EVAPOTRANSPIRATION =          25669.07
           STREAMFLOW =        1410475.02             STREAMFLOW =          12139.80
     GW BOUNDARY FLOW =           4770.14       GW BOUNDARY FLOW =             35.72

   INFLOWS - OUTFLOWS =         294525.62     INFLOWS - OUTFLOWS =         -37843.96
             --------                                   --------

 TOTAL STORAGE CHANGE =         261480.88         STORAGE CHANGE =         -37760.73
       --------------                             --------------
         LAND SURFACE =          75877.11           LAND SURFACE =          -8469.89
            SOIL ZONE =        2437107.45              SOIL ZONE =         -17107.04
     UNSATURATED ZONE =       -2946008.08       UNSATURATED ZONE =         -11737.11
       SATURATED ZONE =         694503.80         SATURATED ZONE =           -446.70

 OVERALL BUDGET ERROR =          33044.74           BUDGET ERROR =            -83.23


  PERCENT DISCREPANCY =              0.95    PERCENT DISCREPANCY =             -0.22



1
 SUMMARY VOLUMETRIC BUDGET FOR GSFLOW 
 DATE: 02 17 1991              CUMULATIVE TIME STEP:      17
 MODFLOW STRESS PERIOD      6     CURRENT TIME STEP:     140     ITERATIONS:       5

 -----------------------------------------------------------------------------------

   CUMULATIVE VOLUMES               L**3   RATES FOR THIS TIME STEP           L**3/T
   ------------------                      ------------------------

                                     IN                                         IN
                                     --                                         --
        PRECIPITATION =        3510173.01          PRECIPITATION =                  
           STREAMFLOW =                               STREAMFLOW =                  
     GW BOUNDARY FLOW =             22.15       GW BOUNDARY FLOW =              0.70


                                    OUT                                        OUT
                                    ---                                        ---
   EVAPOTRANSPIRATION =        2043479.30     EVAPOTRANSPIRATION =          23705.65
           STREAMFLOW =        1495012.32             STREAMFLOW =          12074.61
     GW BOUNDARY FLOW =           5020.07       GW BOUNDARY FLOW =             35.68

   INFLOWS - OUTFLOWS =         -33316.52     INFLOWS - OUTFLOWS =         -35815.25
             --------                                   --------

 TOTAL STORAGE CHANGE =         -65556.59         STORAGE CHANGE =         -35735.56
       --------------                             --------------
         LAND SURFACE =          17890.99           LAND SURFACE =          -1143.67
            SOIL ZONE =        2253358.05              SOIL ZONE =         -22470.55
     UNSATURATED ZONE =       -3025928.82       UNSATURATED ZONE =         -11136.33
       SATURATED ZONE =         689122.50         SATURATED ZONE =           -985.02

 OVERALL BUDGET ERROR =          32240.06           BUDGET ERROR =            -79.69


  PERCENT DISCREPANCY =              0.91    PERCENT DISCREPANCY =             -0.22



1
 SUMMARY VOLUMETRIC BUDGET FOR GSFLOW 
 DATE: 02 24 1991              CUMULATIVE TIME STEP:      24
 MODFLOW STRESS PERIOD      6     CURRENT TIME STEP:     147     ITERATIONS:       5

 -----------------------------------------------------------------------------------

   CUMULATIVE VOLUMES               L**3   RATES FOR THIS TIME STEP           L**3/T
   ------------------                      ------------------------

                                     IN                                         IN
                                     --                                         --
        PRECIPITATION =        3510173.01          PRECIPITATION =                  
           STREAMFLOW =                               STREAMFLOW =                  
     GW BOUNDARY FLOW =             27.30       GW BOUNDARY FLOW =              0.76


                                    OUT                                        OUT
                                    ---                                        ---
   EVAPOTRANSPIRATION =        2256919.88     EVAPOTRANSPIRATION =          21630.12
           STREAMFLOW =        1579088.98             STREAMFLOW =          11985.81
     GW BOUNDARY FLOW =           5269.09       GW BOUNDARY FLOW =             35.48

   INFLOWS - OUTFLOWS =        -331077.63     INFLOWS - OUTFLOWS =         -33650.65
             --------                                   --------

 TOTAL STORAGE CHANGE =        -362593.86         STORAGE CHANGE =         -33574.74
       --------------                             --------------
         LAND SURFACE =           7435.72           LAND SURFACE =           -217.69
            SOIL ZONE =        2052125.01              SOIL ZONE =         -21120.57
     UNSATURATED ZONE =       -3102162.43       UNSATURATED ZONE =         -10715.31
       SATURATED ZONE =         680007.06         SATURATED ZONE =          -1521.17

 OVERALL BUDGET ERROR =          31516.23           BUDGET ERROR =            -75.92


  PERCENT DISCREPANCY =              0.82    PERCENT DISCREPANCY =             -0.23



1
 SUMMARY VOLUMETRIC BUDGET FOR GSFLOW 
 DATE: 03 03 1991              CUMULATIVE TIME STEP:       3
 MODFLOW STRESS PERIOD      7     CURRENT TIME STEP:     154     ITERATIONS:       5

 -----------------------------------------------------------------------------------

   CUMULATIVE VOLUMES               L**3   RATES FOR THIS TIME STEP           L**3/T
   ------------------                      ------------------------

                                     IN                                         IN
                                     --                                         --
        PRECIPITATION =        6220189.63          PRECIPITATION =        1243187.24
           STREAMFLOW =                               STREAMFLOW =                  
     GW BOUNDARY FLOW =             32.90       GW BOUNDARY FLOW =              0.83


                                    OUT                                        OUT
                                    ---                                        ---
   EVAPOTRANSPIRATION =        2408992.96     EVAPOTRANSPIRATION =           8453.33
           STREAMFLOW =        1662713.58             STREAMFLOW =          12291.06
     GW BOUNDARY FLOW =           5516.79       GW BOUNDARY FLOW =             35.34

   INFLOWS - OUTFLOWS =        2142999.20     INFLOWS - OUTFLOWS =        1222408.34
             --------                                   --------

 TOTAL STORAGE CHANGE =        2104331.73         STORAGE CHANGE =        1214787.67
       --------------                             --------------
         LAND SURFACE =        2352761.89           LAND SURFACE =         894135.85
            SOIL ZONE =        2261188.08              SOIL ZONE =         333296.37
     UNSATURATED ZONE =       -3175311.79       UNSATURATED ZONE =         -10273.81
       SATURATED ZONE =         665692.70         SATURATED ZONE =          -2370.76

 OVERALL BUDGET ERROR =          38667.47           BUDGET ERROR =           7620.68


  PERCENT DISCREPANCY =              0.62    PERCENT DISCREPANCY =              0.61



1
 SUMMARY VOLUMETRIC BUDGET FOR GSFLOW 
 DATE: 03 10 1991              CUMULATIVE TIME STEP:      10
 MODFLOW STRESS PERIOD      7     CURRENT TIME STEP:     161     ITERATIONS:       5

 -----------------------------------------------------------------------------------

   CUMULATIVE VOLUMES               L**3   RATES FOR THIS TIME STEP           L**3/T
   ------------------                      ------------------------

                                     IN                                         IN
                                     --                                         --
        PRECIPITATION =        8746030.42          PRECIPITATION =          32888.55
           STREAMFLOW =                               STREAMFLOW =                  
     GW BOUNDARY FLOW =             38.93       GW BOUNDARY FLOW =              0.89


                                    OUT                                        OUT
                                    ---                                        ---
   EVAPOTRANSPIRATION =        2482288.55     EVAPOTRANSPIRATION =           8863.51
           STREAMFLOW =        1848367.13             STREAMFLOW =          22058.99
     GW BOUNDARY FLOW =           5765.74       GW BOUNDARY FLOW =             35.45

   INFLOWS - OUTFLOWS =        4409647.93     INFLOWS - OUTFLOWS =           1931.49
             --------                                   --------

 TOTAL STORAGE CHANGE =        4356440.77         STORAGE CHANGE =           1647.96
       --------------                             --------------
         LAND SURFACE =        2523463.29           LAND SURFACE =         -14137.08
            SOIL ZONE =        4369007.61              SOIL ZONE =          18855.03
     UNSATURATED ZONE =       -3196257.80       UNSATURATED ZONE =          -1957.87
       SATURATED ZONE =         660226.61         SATURATED ZONE =          -1112.15

 OVERALL BUDGET ERROR =          53207.16           BUDGET ERROR =            283.53


  PERCENT DISCREPANCY =              0.61    PERCENT DISCREPANCY =              0.87



1
 SUMMARY VOLUMETRIC BUDGET FOR GSFLOW 
 DATE: 03 17 1991              CUMULATIVE TIME STEP:      17
 MODFLOW STRESS PERIOD      7     CURRENT TIME STEP:     168     ITERATIONS:       5

 -----------------------------------------------------------------------------------

   CUMULATIVE VOLUMES               L**3   RATES FOR THIS TIME STEP           L**3/T
   ------------------                      ------------------------

                                     IN                                         IN
                                     --                                         --
        PRECIPITATION =        9897129.71          PRECIPITATION =         157865.04
           STREAMFLOW =                               STREAMFLOW =                  
     GW BOUNDARY FLOW =             45.37       GW BOUNDARY FLOW =              0.95


                                    OUT                                        OUT
                                    ---                                        ---
   EVAPOTRANSPIRATION =        2510127.38     EVAPOTRANSPIRATION =           8079.77
           STREAMFLOW =        1989208.61             STREAMFLOW =          19558.33
     GW BOUNDARY FLOW =           6012.99       GW BOUNDARY FLOW =             35.25

   INFLOWS - OUTFLOWS =        5391826.11     INFLOWS - OUTFLOWS =         130192.64
             --------                                   --------

 TOTAL STORAGE CHANGE =        5338699.27         STORAGE CHANGE =         130237.29
       --------------                             --------------
         LAND SURFACE =        3672302.33           LAND SURFACE =         157496.61
            SOIL ZONE =        4229435.81              SOIL ZONE =         -22751.04
     UNSATURATED ZONE =       -3213532.23       UNSATURATED ZONE =          -2747.67
       SATURATED ZONE =         650492.09         SATURATED ZONE =          -1760.63

 OVERALL BUDGET ERROR =          53126.84           BUDGET ERROR =            -44.65


  PERCENT DISCREPANCY =              0.54    PERCENT DISCREPANCY =             -0.03



1
 SUMMARY VOLUMETRIC BUDGET FOR GSFLOW 
 DATE: 03 24 1991              CUMULATIVE TIME STEP:      24
 MODFLOW STRESS PERIOD      7     CURRENT TIME STEP:     175     ITERATIONS:       5

 -----------------------------------------------------------------------------------

   CUMULATIVE VOLUMES               L**3   RATES FOR THIS TIME STEP           L**3/T
   ------------------                      ------------------------

                                     IN                                         IN
                                     --                                         --
        PRECIPITATION =        1.1673D+07          PRECIPITATION =        1230031.83
           STREAMFLOW =                               STREAMFLOW =                  
     GW BOUNDARY FLOW =             52.22       GW BOUNDARY FLOW =              1.00


                                    OUT                                        OUT
                                    ---                                        ---
   EVAPOTRANSPIRATION =        2548953.67     EVAPOTRANSPIRATION =           4663.50
           STREAMFLOW =        2122301.67             STREAMFLOW =          18721.78
     GW BOUNDARY FLOW =           6259.04       GW BOUNDARY FLOW =             35.08

   INFLOWS - OUTFLOWS =        6995649.33     INFLOWS - OUTFLOWS =        1206612.47
             --------                                   --------

 TOTAL STORAGE CHANGE =        6942465.62         STORAGE CHANGE =        1206615.10
       --------------                             --------------
         LAND SURFACE =        5426161.24           LAND SURFACE =        1230031.83
            SOIL ZONE =        4116445.08              SOIL ZONE =         -17683.53
     UNSATURATED ZONE =       -3236410.78       UNSATURATED ZONE =          -3515.66
       SATURATED ZONE =         636268.61         SATURATED ZONE =          -2217.57

 OVERALL BUDGET ERROR =          53183.71           BUDGET ERROR =             -2.62


  PERCENT DISCREPANCY =              0.46    PERCENT DISCREPANCY =             -0.00



1
 SUMMARY VOLUMETRIC BUDGET FOR GSFLOW 
 DATE: 03 31 1991              CUMULATIVE TIME STEP:      31
 MODFLOW STRESS PERIOD      7     CURRENT TIME STEP:     182     ITERATIONS:       6

 -----------------------------------------------------------------------------------

   CUMULATIVE VOLUMES               L**3   RATES FOR THIS TIME STEP           L**3/T
   ------------------                      ------------------------

                                     IN                                         IN
                                     --                                         --
        PRECIPITATION =        1.2495D+07          PRECIPITATION =                  
           STREAMFLOW =                               STREAMFLOW =                  
     GW BOUNDARY FLOW =             59.46       GW BOUNDARY FLOW =              1.06


                                    OUT                                        OUT
                                    ---                                        ---
   EVAPOTRANSPIRATION =        2670718.14     EVAPOTRANSPIRATION =          48055.46
           STREAMFLOW =        2256596.83             STREAMFLOW =          22343.33
     GW BOUNDARY FLOW =           6504.14       GW BOUNDARY FLOW =             35.02

   INFLOWS - OUTFLOWS =        7561565.63     INFLOWS - OUTFLOWS =         -70432.76
             --------                                   --------

 TOTAL STORAGE CHANGE =        7507175.53         STORAGE CHANGE =         -71355.95
       --------------                             --------------
         LAND SURFACE =        5977198.28           LAND SURFACE =        -148137.48
            SOIL ZONE =        4171942.70              SOIL ZONE =          81779.21
     UNSATURATED ZONE =       -3260925.47       UNSATURATED ZONE =          -2494.44
       SATURATED ZONE =         618958.31         SATURATED ZONE =          -2503.27

 OVERALL BUDGET ERROR =          54390.11           BUDGET ERROR =            923.20


  PERCENT DISCREPANCY =              0.44    PERCENT DISCREPANCY =              1.30



1
 SUMMARY VOLUMETRIC BUDGET FOR GSFLOW 
 DATE: 04 07 1991              CUMULATIVE TIME STEP:       7
 MODFLOW STRESS PERIOD      8     CURRENT TIME STEP:     189     ITERATIONS:       7

 -----------------------------------------------------------------------------------

   CUMULATIVE VOLUMES               L**3   RATES FOR THIS TIME STEP           L**3/T
   ------------------                      ------------------------

                                     IN                                         IN
                                     --                                         --
        PRECIPITATION =        1.3018D+07          PRECIPITATION =                  
           STREAMFLOW =                               STREAMFLOW =                  
     GW BOUNDARY FLOW =             67.07       GW BOUNDARY FLOW =              1.11


                                    OUT                                        OUT
                                    ---                                        ---
   EVAPOTRANSPIRATION =        2978822.06     EVAPOTRANSPIRATION =          15960.30
           STREAMFLOW =        2577730.55             STREAMFLOW =          64306.63
     GW BOUNDARY FLOW =           6751.58       GW BOUNDARY FLOW =             35.61

   INFLOWS - OUTFLOWS =        7454499.63     INFLOWS - OUTFLOWS =         -80301.44
             --------                                   --------

 TOTAL STORAGE CHANGE =        7390889.42         STORAGE CHANGE =         -80817.56
       --------------                             --------------
         LAND SURFACE =        4335933.25           LAND SURFACE =         -73164.41
            SOIL ZONE =        5687126.06              SOIL ZONE =         -15186.24
     UNSATURATED ZONE =       -3237618.68       UNSATURATED ZONE =           9251.19
       SATURATED ZONE =         605446.85         SATURATED ZONE =          -1718.15

 OVERALL BUDGET ERROR =          63610.20           BUDGET ERROR =            516.13


  PERCENT DISCREPANCY =              0.49    PERCENT DISCREPANCY =              0.64



1
 SUMMARY VOLUMETRIC BUDGET FOR GSFLOW 
 DATE: 04 14 1991              CUMULATIVE TIME STEP:      14
 MODFLOW STRESS PERIOD      8     CURRENT TIME STEP:     196     ITERATIONS:       7

 -----------------------------------------------------------------------------------

   CUMULATIVE VOLUMES               L**3   RATES FOR THIS TIME STEP           L**3/T
   ------------------                      ------------------------

                                     IN                                         IN
                                     --                                         --
        PRECIPITATION =        1.3018D+07          PRECIPITATION =                  
           STREAMFLOW =                               STREAMFLOW =                  
     GW BOUNDARY FLOW =             74.99       GW BOUNDARY FLOW =              1.15


                                    OUT                                        OUT
                                    ---                                        ---
   EVAPOTRANSPIRATION =        3162937.48     EVAPOTRANSPIRATION =          42038.19
           STREAMFLOW =        3074181.23             STREAMFLOW =          75617.01
     GW BOUNDARY FLOW =           7000.92       GW BOUNDARY FLOW =             35.63

   INFLOWS - OUTFLOWS =        6773692.11     INFLOWS - OUTFLOWS =        -117689.68
             --------                                   --------

 TOTAL STORAGE CHANGE =        6706775.29         STORAGE CHANGE =        -118572.19
       --------------                             --------------
         LAND SURFACE =        3672284.12           LAND SURFACE =        -192335.10
            SOIL ZONE =        5616083.27              SOIL ZONE =          66842.83
     UNSATURATED ZONE =       -3175932.48       UNSATURATED ZONE =           8353.72
       SATURATED ZONE =         594338.12         SATURATED ZONE =          -1433.68

 OVERALL BUDGET ERROR =          66916.81           BUDGET ERROR =            882.51


  PERCENT DISCREPANCY =              0.52    PERCENT DISCREPANCY =              0.75



1
 SUMMARY VOLUMETRIC BUDGET FOR GSFLOW 
 DATE: 04 21 1991              CUMULATIVE TIME STEP:      21
 MODFLOW STRESS PERIOD      8     CURRENT TIME STEP:     203     ITERATIONS:       9

 -----------------------------------------------------------------------------------

   CUMULATIVE VOLUMES               L**3   RATES FOR THIS TIME STEP           L**3/T
   ------------------                      ------------------------

                                     IN                                         IN
                                     --                                         --
        PRECIPITATION =        1.3034D+07          PRECIPITATION =                  
           STREAMFLOW =                               STREAMFLOW =                  
     GW BOUNDARY FLOW =             83.22       GW BOUNDARY FLOW =              1.19


                                    OUT                                        OUT
                                    ---                                        ---
   EVAPOTRANSPIRATION =        3416578.34     EVAPOTRANSPIRATION =          46896.67
           STREAMFLOW =        3644401.83             STREAMFLOW =          93229.01
     GW BOUNDARY FLOW =           7250.47       GW BOUNDARY FLOW =             35.76

   INFLOWS - OUTFLOWS =        5965914.68     INFLOWS - OUTFLOWS =        -140160.24
             --------                                   --------

 TOTAL STORAGE CHANGE =        5894374.77         STORAGE CHANGE =        -140913.67
       --------------                             --------------
         LAND SURFACE =        2500870.93           LAND SURFACE =        -216968.59
            SOIL ZONE =        5920048.95              SOIL ZONE =          66486.84
     UNSATURATED ZONE =       -3112767.23       UNSATURATED ZONE =          10553.69
       SATURATED ZONE =         586219.48         SATURATED ZONE =           -985.65

 OVERALL BUDGET ERROR =          71539.91           BUDGET ERROR =            753.42


  PERCENT DISCREPANCY =              0.55    PERCENT DISCREPANCY =              0.54



1
 SUMMARY VOLUMETRIC BUDGET FOR GSFLOW 
 DATE: 04 28 1991              CUMULATIVE TIME STEP:      28
 MODFLOW STRESS PERIOD      8     CURRENT TIME STEP:     210     ITERATIONS:       6

 -----------------------------------------------------------------------------------

   CUMULATIVE VOLUMES               L**3   RATES FOR THIS TIME STEP           L**3/T
   ------------------                      ------------------------

                                     IN                                         IN
                                     --                                         --
        PRECIPITATION =        1.3303D+07          PRECIPITATION =                  
           STREAMFLOW =                               STREAMFLOW =                  
     GW BOUNDARY FLOW =             91.71       GW BOUNDARY FLOW =              1.23


                                    OUT                                        OUT
                                    ---                                        ---
   EVAPOTRANSPIRATION =        3685006.09     EVAPOTRANSPIRATION =          58233.50
           STREAMFLOW =        4312038.51             STREAMFLOW =          94788.81
     GW BOUNDARY FLOW =           7500.58       GW BOUNDARY FLOW =             35.68

   INFLOWS - OUTFLOWS =        5298977.03     INFLOWS - OUTFLOWS =        -153056.76
             --------                                   --------

 TOTAL STORAGE CHANGE =        5223756.88         STORAGE CHANGE =        -153311.20
       --------------                             --------------
         LAND SURFACE =        1748447.62           LAND SURFACE =        -137153.52
            SOIL ZONE =        5929328.31              SOIL ZONE =         -25942.58
     UNSATURATED ZONE =       -3037838.69       UNSATURATED ZONE =          10297.68
       SATURATED ZONE =         583816.62         SATURATED ZONE =           -512.83

 OVERALL BUDGET ERROR =          75220.15           BUDGET ERROR =            254.43


  PERCENT DISCREPANCY =              0.57    PERCENT DISCREPANCY =              0.17



1
 SUMMARY VOLUMETRIC BUDGET FOR GSFLOW 
 DATE: 05 05 1991              CUMULATIVE TIME STEP:       5
 MODFLOW STRESS PERIOD      9     CURRENT TIME STEP:     217     ITERATIONS:     109

 -----------------------------------------------------------------------------------

   CUMULATIVE VOLUMES               L**3   RATES FOR THIS TIME STEP           L**3/T
   ------------------                      ------------------------

                                     IN                                         IN
                                     --                                         --
        PRECIPITATION =        1.3510D+07          PRECIPITATION =                  
           STREAMFLOW =                               STREAMFLOW =                  
     GW BOUNDARY FLOW =            100.47       GW BOUNDARY FLOW =              1.27


                                    OUT                                        OUT
                                    ---                                        ---
   EVAPOTRANSPIRATION =        4062542.84     EVAPOTRANSPIRATION =          90413.56
           STREAMFLOW =        4918992.68             STREAMFLOW =          86453.58
     GW BOUNDARY FLOW =           7749.17       GW BOUNDARY FLOW =             35.44

   INFLOWS - OUTFLOWS =        4520523.91     INFLOWS - OUTFLOWS =        -176901.31
             --------                                   --------

 TOTAL STORAGE CHANGE =        4443822.05         STORAGE CHANGE =        -176994.07
       --------------                             --------------
         LAND SURFACE =        1036420.07           LAND SURFACE =        -150153.36
            SOIL ZONE =        5800739.16              SOIL ZONE =         -36027.07
     UNSATURATED ZONE =       -2973573.92       UNSATURATED ZONE =           7889.91
       SATURATED ZONE =         580233.30         SATURATED ZONE =           1296.39

 OVERALL BUDGET ERROR =          76701.86           BUDGET ERROR =             92.76


  PERCENT DISCREPANCY =              0.57    PERCENT DISCREPANCY =              0.05



1
 SUMMARY VOLUMETRIC BUDGET FOR GSFLOW 
 DATE: 05 12 1991              CUMULATIVE TIME STEP:      12
 MODFLOW STRESS PERIOD      9     CURRENT TIME STEP:     224     ITERATIONS:       7

 -----------------------------------------------------------------------------------

   CUMULATIVE VOLUMES               L**3   RATES FOR THIS TIME STEP           L**3/T
   ------------------                      ------------------------

                                     IN                                         IN
                                     --                                         --
        PRECIPITATION =        1.4029D+07          PRECIPITATION =                  
           STREAMFLOW =                               STREAMFLOW =                  
     GW BOUNDARY FLOW =            109.49       GW BOUNDARY FLOW =              1.31


                                    OUT                                        OUT
                                    ---                                        ---
   EVAPOTRANSPIRATION =        4458166.95     EVAPOTRANSPIRATION =          68953.88
           STREAMFLOW =        5484090.93             STREAMFLOW =          83995.81
     GW BOUNDARY FLOW =           7996.03       GW BOUNDARY FLOW =             35.22

   INFLOWS - OUTFLOWS =        4079077.74     INFLOWS - OUTFLOWS =        -152983.61
             --------                                   --------

 TOTAL STORAGE CHANGE =        4000427.76         STORAGE CHANGE =        -152865.52
       --------------                             --------------
         LAND SURFACE =         579124.41           LAND SURFACE =        -205427.92
            SOIL ZONE =        5760489.85              SOIL ZONE =          45115.53
     UNSATURATED ZONE =       -2913559.27       UNSATURATED ZONE =           8418.08
       SATURATED ZONE =         574368.90         SATURATED ZONE =           -971.28

 OVERALL BUDGET ERROR =          78649.98           BUDGET ERROR =           -118.09


  PERCENT DISCREPANCY =              0.56    PERCENT DISCREPANCY =             -0.08



1
 SUMMARY VOLUMETRIC BUDGET FOR GSFLOW 
 DATE: 05 19 1991              CUMULATIVE TIME STEP:      19
 MODFLOW STRESS PERIOD      9     CURRENT TIME STEP:     231     ITERATIONS:       7

 -----------------------------------------------------------------------------------

   CUMULATIVE VOLUMES               L**3   RATES FOR THIS TIME STEP           L**3/T
   ------------------                      ------------------------

                                     IN                                         IN
                                     --                                         --
        PRECIPITATION =        1.4365D+07          PRECIPITATION =                  
           STREAMFLOW =                               STREAMFLOW =                  
     GW BOUNDARY FLOW =            118.78       GW BOUNDARY FLOW =              1.34


                                    OUT                                        OUT
                                    ---                                        ---
   EVAPOTRANSPIRATION =        4896842.11     EVAPOTRANSPIRATION =          20444.02
           STREAMFLOW =        5975167.10             STREAMFLOW =          62165.90
     GW BOUNDARY FLOW =           8240.68       GW BOUNDARY FLOW =             34.76

   INFLOWS - OUTFLOWS =        3485247.20     INFLOWS - OUTFLOWS =         -82643.34
             --------                                   --------

 TOTAL STORAGE CHANGE =        3405551.80         STORAGE CHANGE =         -82614.03
       --------------                             --------------
         LAND SURFACE =         228252.15           LAND SURFACE =         -22354.64
            SOIL ZONE =        5477492.36              SOIL ZONE =         -64490.23
     UNSATURATED ZONE =       -2866791.98       UNSATURATED ZONE =           5387.32
       SATURATED ZONE =         566594.95         SATURATED ZONE =          -1156.54

 OVERALL BUDGET ERROR =          79695.40           BUDGET ERROR =            -29.31


  PERCENT DISCREPANCY =              0.56    PERCENT DISCREPANCY =             -0.04



1
 SUMMARY VOLUMETRIC BUDGET FOR GSFLOW 
 DATE: 05 26 1991              CUMULATIVE TIME STEP:      26
 MODFLOW STRESS PERIOD      9     CURRENT TIME STEP:     238     ITERATIONS:       6

 -----------------------------------------------------------------------------------

   CUMULATIVE VOLUMES               L**3   RATES FOR THIS TIME STEP           L**3/T
   ------------------                      ------------------------

                                     IN                                         IN
                                     --                                         --
        PRECIPITATION =        1.4426D+07          PRECIPITATION =                  
           STREAMFLOW =                               STREAMFLOW =                  
     GW BOUNDARY FLOW =            128.35       GW BOUNDARY FLOW =              1.39


                                    OUT                                        OUT
                                    ---                                        ---
   EVAPOTRANSPIRATION =        5581487.33     EVAPOTRANSPIRATION =          76900.78
           STREAMFLOW =        6327817.27             STREAMFLOW =          37211.42
     GW BOUNDARY FLOW =           8482.13       GW BOUNDARY FLOW =             34.20

   INFLOWS - OUTFLOWS =        2508839.23     INFLOWS - OUTFLOWS =        -114145.02
             --------                                   --------

 TOTAL STORAGE CHANGE =        2429143.36         STORAGE CHANGE =        -114256.21
       --------------                             --------------
         LAND SURFACE =          55233.90           LAND SURFACE =          -8157.37
            SOIL ZONE =        4665492.38              SOIL ZONE =        -103908.43
     UNSATURATED ZONE =       -2847812.00       UNSATURATED ZONE =           -339.58
       SATURATED ZONE =         556224.32         SATURATED ZONE =          -1850.90

 OVERALL BUDGET ERROR =          79695.87           BUDGET ERROR =            111.19


  PERCENT DISCREPANCY =              0.55    PERCENT DISCREPANCY =              0.10



1
 SUMMARY VOLUMETRIC BUDGET FOR GSFLOW 
 DATE: 06 02 1991              CUMULATIVE TIME STEP:       2
 MODFLOW STRESS PERIOD     10     CURRENT TIME STEP:     245     ITERATIONS:       6

 -----------------------------------------------------------------------------------

   CUMULATIVE VOLUMES               L**3   RATES FOR THIS TIME STEP           L**3/T
   ------------------                      ------------------------

                                     IN                                         IN
                                     --                                         --
        PRECIPITATION =        1.4671D+07          PRECIPITATION =                  
           STREAMFLOW =                               STREAMFLOW =                  
     GW BOUNDARY FLOW =            138.22       GW BOUNDARY FLOW =              1.43


                                    OUT                                        OUT
                                    ---                                        ---
   EVAPOTRANSPIRATION =        6170671.40     EVAPOTRANSPIRATION =         127566.24
           STREAMFLOW =        6553761.58             STREAMFLOW =          28205.57
     GW BOUNDARY FLOW =           8720.27       GW BOUNDARY FLOW =             33.87

   INFLOWS - OUTFLOWS =        1937959.78     INFLOWS - OUTFLOWS =        -155804.25
             --------                                   --------

 TOTAL STORAGE CHANGE =        1858681.84         STORAGE CHANGE =        -155598.94
       --------------                             --------------
         LAND SURFACE =          19760.70           LAND SURFACE =          -4094.13
            SOIL ZONE =        4160793.48              SOIL ZONE =        -145898.70
     UNSATURATED ZONE =       -2862173.11       UNSATURATED ZONE =          -3025.68
       SATURATED ZONE =         540295.57         SATURATED ZONE =          -2580.50

 OVERALL BUDGET ERROR =          79277.93           BUDGET ERROR =           -205.31


  PERCENT DISCREPANCY =              0.54    PERCENT DISCREPANCY =             -0.13



1
 SUMMARY VOLUMETRIC BUDGET FOR GSFLOW 
 DATE: 06 09 1991              CUMULATIVE TIME STEP:       9
 MODFLOW STRESS PERIOD     10     CURRENT TIME STEP:     252     ITERATIONS:       7

 -----------------------------------------------------------------------------------

   CUMULATIVE VOLUMES               L**3   RATES FOR THIS TIME STEP           L**3/T
   ------------------                      ------------------------

                                     IN                                         IN
                                     --                                         --
        PRECIPITATION =        1.4671D+07          PRECIPITATION =                  
           STREAMFLOW =                               STREAMFLOW =                  
     GW BOUNDARY FLOW =            148.39       GW BOUNDARY FLOW =              1.47


                                    OUT                                        OUT
                                    ---                                        ---
   EVAPOTRANSPIRATION =        6959150.92     EVAPOTRANSPIRATION =         172470.54
           STREAMFLOW =        6711108.42             STREAMFLOW =          18950.97
     GW BOUNDARY FLOW =           8955.90       GW BOUNDARY FLOW =             33.51

   INFLOWS - OUTFLOWS =         991907.95     INFLOWS - OUTFLOWS =        -191453.56
             --------                                   --------

 TOTAL STORAGE CHANGE =         914500.69         STORAGE CHANGE =        -190705.35
       --------------                             --------------
         LAND SURFACE =           3957.39           LAND SURFACE =          -2186.13
            SOIL ZONE =        3289560.35              SOIL ZONE =        -178783.93
     UNSATURATED ZONE =       -2897576.57       UNSATURATED ZONE =          -6135.29
       SATURATED ZONE =         518553.87         SATURATED ZONE =          -3600.07

 OVERALL BUDGET ERROR =          77407.26           BUDGET ERROR =           -748.20


  PERCENT DISCREPANCY =              0.53    PERCENT DISCREPANCY =             -0.39



1
 SUMMARY VOLUMETRIC BUDGET FOR GSFLOW 
 DATE: 06 16 1991              CUMULATIVE TIME STEP:      16
 MODFLOW STRESS PERIOD     10     CURRENT TIME STEP:     259     ITERATIONS:       6

 -----------------------------------------------------------------------------------

   CUMULATIVE VOLUMES               L**3   RATES FOR THIS TIME STEP           L**3/T
   ------------------                      ------------------------

                                     IN                                         IN
                                     --                                         --
        PRECIPITATION =        1.4671D+07          PRECIPITATION =                  
           STREAMFLOW =                               STREAMFLOW =                  
     GW BOUNDARY FLOW =            158.87       GW BOUNDARY FLOW =              1.52


                                    OUT                                        OUT
                                    ---                                        ---
   EVAPOTRANSPIRATION =        7975770.24     EVAPOTRANSPIRATION =         117011.31
           STREAMFLOW =        6813228.44             STREAMFLOW =          12682.92
     GW BOUNDARY FLOW =           9187.97       GW BOUNDARY FLOW =             33.03

   INFLOWS - OUTFLOWS =        -127052.98     INFLOWS - OUTFLOWS =        -129725.75
             --------                                   --------

 TOTAL STORAGE CHANGE =        -199010.94         STORAGE CHANGE =        -128939.82
       --------------                             --------------
         LAND SURFACE =            106.65           LAND SURFACE =            -66.98
            SOIL ZONE =        2293326.45              SOIL ZONE =        -107755.32
     UNSATURATED ZONE =       -2980141.77       UNSATURATED ZONE =         -15849.86
       SATURATED ZONE =         487691.63         SATURATED ZONE =          -5267.72

 OVERALL BUDGET ERROR =          71957.96           BUDGET ERROR =           -785.93


  PERCENT DISCREPANCY =              0.49    PERCENT DISCREPANCY =             -0.61



1
 SUMMARY VOLUMETRIC BUDGET FOR GSFLOW 
 DATE: 06 23 1991              CUMULATIVE TIME STEP:      23
 MODFLOW STRESS PERIOD     10     CURRENT TIME STEP:     266     ITERATIONS:       7

 -----------------------------------------------------------------------------------

   CUMULATIVE VOLUMES               L**3   RATES FOR THIS TIME STEP           L**3/T
   ------------------                      ------------------------

                                     IN                                         IN
                                     --                                         --
        PRECIPITATION =        1.4671D+07          PRECIPITATION =                  
           STREAMFLOW =                               STREAMFLOW =                  
     GW BOUNDARY FLOW =            169.66       GW BOUNDARY FLOW =              1.56


                                    OUT                                        OUT
                                    ---                                        ---
   EVAPOTRANSPIRATION =        8518294.72     EVAPOTRANSPIRATION =          38765.91
           STREAMFLOW =        6895410.91             STREAMFLOW =          11966.08
     GW BOUNDARY FLOW =           9418.53       GW BOUNDARY FLOW =             32.91

   INFLOWS - OUTFLOWS =        -751979.70     INFLOWS - OUTFLOWS =         -50763.35
             --------                                   --------

 TOTAL STORAGE CHANGE =        -819843.06         STORAGE CHANGE =         -50490.07
       --------------                             --------------
         LAND SURFACE =             16.57           LAND SURFACE =             -3.65
            SOIL ZONE =        1826642.59              SOIL ZONE =         -31385.84
     UNSATURATED ZONE =       -3090957.45       UNSATURATED ZONE =         -12823.35
       SATURATED ZONE =         444448.68         SATURATED ZONE =          -6277.29

 OVERALL BUDGET ERROR =          67863.36           BUDGET ERROR =           -273.28


  PERCENT DISCREPANCY =              0.44    PERCENT DISCREPANCY =             -0.54



1
 SUMMARY VOLUMETRIC BUDGET FOR GSFLOW 
 DATE: 06 30 1991              CUMULATIVE TIME STEP:      30
 MODFLOW STRESS PERIOD     10     CURRENT TIME STEP:     273     ITERATIONS:       7

 -----------------------------------------------------------------------------------

   CUMULATIVE VOLUMES               L**3   RATES FOR THIS TIME STEP           L**3/T
   ------------------                      ------------------------

                                     IN                                         IN
[...]
     GW BOUNDARY FLOW =          50949.49       GW BOUNDARY FLOW =             24.10

   INFLOWS - OUTFLOWS =       -1.1398D+07     INFLOWS - OUTFLOWS =         -80482.34
             --------                                   --------

 TOTAL STORAGE CHANGE =       -1.1822D+07         STORAGE CHANGE =         -80345.72
       --------------                             --------------
         LAND SURFACE =         179293.20           LAND SURFACE =         -11102.33
            SOIL ZONE =        1380709.05              SOIL ZONE =         -50395.94
     UNSATURATED ZONE =         -15658.29       UNSATURATED ZONE =         -11768.54
       SATURATED ZONE =       -1.3367D+07         SATURATED ZONE =          -7079.45

 OVERALL BUDGET ERROR =         424263.40           BUDGET ERROR =           -136.62


  PERCENT DISCREPANCY =              0.29    PERCENT DISCREPANCY =             -0.17



1
 SUMMARY VOLUMETRIC BUDGET FOR GSFLOW 
 DATE: 09 03 1995              CUMULATIVE TIME STEP:       3
 MODFLOW STRESS PERIOD     61     CURRENT TIME STEP:    1799     ITERATIONS:       7

 -----------------------------------------------------------------------------------

   CUMULATIVE VOLUMES               L**3   RATES FOR THIS TIME STEP           L**3/T
   ------------------                      ------------------------

                                     IN                                         IN
                                     --                                         --
        PRECIPITATION =        1.3351D+08          PRECIPITATION =                  
           STREAMFLOW =                               STREAMFLOW =                  
     GW BOUNDARY FLOW =           5626.23       GW BOUNDARY FLOW =              3.53


                                    OUT                                        OUT
                                    ---                                        ---
   EVAPOTRANSPIRATION =        7.3387D+07     EVAPOTRANSPIRATION =          63206.52
           STREAMFLOW =        7.2002D+07             STREAMFLOW =           6620.12
     GW BOUNDARY FLOW =          51117.76       GW BOUNDARY FLOW =             24.00

   INFLOWS - OUTFLOWS =       -1.1926D+07     INFLOWS - OUTFLOWS =         -69847.11
             --------                                   --------

 TOTAL STORAGE CHANGE =       -1.2350D+07         STORAGE CHANGE =         -69816.25
       --------------                             --------------
         LAND SURFACE =         114525.51           LAND SURFACE =          -7766.54
            SOIL ZONE =        1049010.36              SOIL ZONE =         -43569.54
     UNSATURATED ZONE =         -92817.39       UNSATURATED ZONE =         -10593.82
       SATURATED ZONE =       -1.3421D+07         SATURATED ZONE =          -7886.89

 OVERALL BUDGET ERROR =         423628.79           BUDGET ERROR =            -30.86


  PERCENT DISCREPANCY =              0.29    PERCENT DISCREPANCY =             -0.04



1
 SUMMARY VOLUMETRIC BUDGET FOR GSFLOW 
 DATE: 09 10 1995              CUMULATIVE TIME STEP:      10
 MODFLOW STRESS PERIOD     61     CURRENT TIME STEP:    1806     ITERATIONS:       7

 -----------------------------------------------------------------------------------

   CUMULATIVE VOLUMES               L**3   RATES FOR THIS TIME STEP           L**3/T
   ------------------                      ------------------------

                                     IN                                         IN
                                     --                                         --
        PRECIPITATION =        1.3351D+08          PRECIPITATION =                  
           STREAMFLOW =                               STREAMFLOW =                  
     GW BOUNDARY FLOW =           5651.31       GW BOUNDARY FLOW =              3.62


                                    OUT                                        OUT
                                    ---                                        ---
   EVAPOTRANSPIRATION =        7.3741D+07     EVAPOTRANSPIRATION =          47306.70
           STREAMFLOW =        7.2049D+07             STREAMFLOW =           6664.33
     GW BOUNDARY FLOW =          51285.90       GW BOUNDARY FLOW =             24.01

   INFLOWS - OUTFLOWS =       -1.2328D+07     INFLOWS - OUTFLOWS =         -53991.42
             --------                                   --------

 TOTAL STORAGE CHANGE =       -1.2751D+07         STORAGE CHANGE =         -53968.14
       --------------                             --------------
         LAND SURFACE =          75925.34           LAND SURFACE =          -4673.87
            SOIL ZONE =         809001.36              SOIL ZONE =         -31430.62
     UNSATURATED ZONE =        -164800.96       UNSATURATED ZONE =         -10357.35
       SATURATED ZONE =       -1.3472D+07         SATURATED ZONE =          -7506.84

 OVERALL BUDGET ERROR =         423485.35           BUDGET ERROR =            -23.28


  PERCENT DISCREPANCY =              0.29    PERCENT DISCREPANCY =             -0.04



1
 SUMMARY VOLUMETRIC BUDGET FOR GSFLOW 
 DATE: 09 17 1995              CUMULATIVE TIME STEP:      17
 MODFLOW STRESS PERIOD     61     CURRENT TIME STEP:    1813     ITERATIONS:       7

 -----------------------------------------------------------------------------------

   CUMULATIVE VOLUMES               L**3   RATES FOR THIS TIME STEP           L**3/T
   ------------------                      ------------------------

                                     IN                                         IN
                                     --                                         --
        PRECIPITATION =        1.3351D+08          PRECIPITATION =                  
           STREAMFLOW =                               STREAMFLOW =                  
     GW BOUNDARY FLOW =           5677.01       GW BOUNDARY FLOW =              3.71


                                    OUT                                        OUT
                                    ---                                        ---
   EVAPOTRANSPIRATION =        7.4123D+07     EVAPOTRANSPIRATION =          43153.73
           STREAMFLOW =        7.2089D+07             STREAMFLOW =           5845.14
     GW BOUNDARY FLOW =          51453.23       GW BOUNDARY FLOW =             23.93

   INFLOWS - OUTFLOWS =       -1.2749D+07     INFLOWS - OUTFLOWS =         -49019.08
             --------                                   --------

 TOTAL STORAGE CHANGE =       -1.3172D+07         STORAGE CHANGE =         -48996.46
       --------------                             --------------
         LAND SURFACE =          44186.54           LAND SURFACE =          -3043.17
            SOIL ZONE =         564792.88              SOIL ZONE =         -26440.44
     UNSATURATED ZONE =        -241224.16       UNSATURATED ZONE =         -10703.00
       SATURATED ZONE =       -1.3540D+07         SATURATED ZONE =          -8810.38

 OVERALL BUDGET ERROR =         423277.84           BUDGET ERROR =            -22.62


  PERCENT DISCREPANCY =              0.29    PERCENT DISCREPANCY =             -0.05



1
 SUMMARY VOLUMETRIC BUDGET FOR GSFLOW 
 DATE: 09 24 1995              CUMULATIVE TIME STEP:      24
 MODFLOW STRESS PERIOD     61     CURRENT TIME STEP:    1820     ITERATIONS:       6

 -----------------------------------------------------------------------------------

   CUMULATIVE VOLUMES               L**3   RATES FOR THIS TIME STEP           L**3/T
   ------------------                      ------------------------

                                     IN                                         IN
                                     --                                         --
        PRECIPITATION =        1.3351D+08          PRECIPITATION =                  
           STREAMFLOW =                               STREAMFLOW =                  
     GW BOUNDARY FLOW =           5703.32       GW BOUNDARY FLOW =              3.79


                                    OUT                                        OUT
                                    ---                                        ---
   EVAPOTRANSPIRATION =        7.4388D+07     EVAPOTRANSPIRATION =          27442.12
           STREAMFLOW =        7.2130D+07             STREAMFLOW =           6487.89
     GW BOUNDARY FLOW =          51620.71       GW BOUNDARY FLOW =             23.97

   INFLOWS - OUTFLOWS =       -1.3056D+07     INFLOWS - OUTFLOWS =         -33950.19
             --------                                   --------

 TOTAL STORAGE CHANGE =       -1.3479D+07         STORAGE CHANGE =         -33938.19
       --------------                             --------------
         LAND SURFACE =          28055.76           LAND SURFACE =          -1559.79
            SOIL ZONE =         409275.92              SOIL ZONE =         -15434.67
     UNSATURATED ZONE =        -313311.20       UNSATURATED ZONE =          -9209.34
       SATURATED ZONE =       -1.3603D+07         SATURATED ZONE =          -7734.92

 OVERALL BUDGET ERROR =         423131.94           BUDGET ERROR =            -12.00


  PERCENT DISCREPANCY =              0.29    PERCENT DISCREPANCY =             -0.04



1
 SUMMARY VOLUMETRIC BUDGET FOR GSFLOW 
 DATE: 10 01 1995              CUMULATIVE TIME STEP:       1
 MODFLOW STRESS PERIOD     62     CURRENT TIME STEP:    1827     ITERATIONS:       6

 -----------------------------------------------------------------------------------

   CUMULATIVE VOLUMES               L**3   RATES FOR THIS TIME STEP           L**3/T
   ------------------                      ------------------------

                                     IN                                         IN
                                     --                                         --
        PRECIPITATION =        1.3351D+08          PRECIPITATION =                  
           STREAMFLOW =                               STREAMFLOW =                  
     GW BOUNDARY FLOW =           5730.20       GW BOUNDARY FLOW =              3.87


                                    OUT                                        OUT
                                    ---                                        ---
   EVAPOTRANSPIRATION =        7.4504D+07     EVAPOTRANSPIRATION =          16766.68
           STREAMFLOW =        7.2183D+07             STREAMFLOW =           7475.64
     GW BOUNDARY FLOW =          51789.07       GW BOUNDARY FLOW =             24.06

   INFLOWS - OUTFLOWS =       -1.3224D+07     INFLOWS - OUTFLOWS =         -24262.51
             --------                                   --------

 TOTAL STORAGE CHANGE =       -1.3647D+07         STORAGE CHANGE =         -24257.22
       --------------                             --------------
         LAND SURFACE =          22241.69           LAND SURFACE =           -699.89
            SOIL ZONE =         346643.14              SOIL ZONE =          -9153.69
     UNSATURATED ZONE =        -371021.65       UNSATURATED ZONE =          -8084.60
       SATURATED ZONE =       -1.3645D+07         SATURATED ZONE =          -6319.58

 OVERALL BUDGET ERROR =         423086.78           BUDGET ERROR =             -5.29


  PERCENT DISCREPANCY =              0.29    PERCENT DISCREPANCY =             -0.02



1
 SUMMARY VOLUMETRIC BUDGET FOR GSFLOW 
 DATE: 10 08 1995              CUMULATIVE TIME STEP:       8
 MODFLOW STRESS PERIOD     62     CURRENT TIME STEP:    1834     ITERATIONS:       6

 -----------------------------------------------------------------------------------

   CUMULATIVE VOLUMES               L**3   RATES FOR THIS TIME STEP           L**3/T
   ------------------                      ------------------------

                                     IN                                         IN
                                     --                                         --
        PRECIPITATION =        1.3351D+08          PRECIPITATION =                  
           STREAMFLOW =                               STREAMFLOW =                  
     GW BOUNDARY FLOW =           5757.62       GW BOUNDARY FLOW =              3.95


                                    OUT                                        OUT
                                    ---                                        ---
   EVAPOTRANSPIRATION =        7.4627D+07     EVAPOTRANSPIRATION =          15497.00
           STREAMFLOW =        7.2233D+07             STREAMFLOW =           7388.69
     GW BOUNDARY FLOW =          51957.40       GW BOUNDARY FLOW =             24.06

   INFLOWS - OUTFLOWS =       -1.3398D+07     INFLOWS - OUTFLOWS =         -22905.81
             --------                                   --------

 TOTAL STORAGE CHANGE =       -1.3821D+07         STORAGE CHANGE =         -22899.86
       --------------                             --------------
         LAND SURFACE =          18179.45           LAND SURFACE =           -628.45
            SOIL ZONE =         279462.71              SOIL ZONE =          -8135.80
     UNSATURATED ZONE =        -425715.50       UNSATURATED ZONE =          -7450.51
       SATURATED ZONE =       -1.3693D+07         SATURATED ZONE =          -6685.65

 OVERALL BUDGET ERROR =         423030.22           BUDGET ERROR =             -5.94


  PERCENT DISCREPANCY =              0.29    PERCENT DISCREPANCY =             -0.03



1
 SUMMARY VOLUMETRIC BUDGET FOR GSFLOW 
 DATE: 10 15 1995              CUMULATIVE TIME STEP:      15
 MODFLOW STRESS PERIOD     62     CURRENT TIME STEP:    1841     ITERATIONS:       5

 -----------------------------------------------------------------------------------

   CUMULATIVE VOLUMES               L**3   RATES FOR THIS TIME STEP           L**3/T
   ------------------                      ------------------------

                                     IN                                         IN
                                     --                                         --
        PRECIPITATION =        1.3351D+08          PRECIPITATION =                  
           STREAMFLOW =                               STREAMFLOW =                  
     GW BOUNDARY FLOW =           5785.53       GW BOUNDARY FLOW =              4.02


                                    OUT                                        OUT
                                    ---                                        ---
   EVAPOTRANSPIRATION =        7.4743D+07     EVAPOTRANSPIRATION =          18089.46
           STREAMFLOW =        7.2284D+07             STREAMFLOW =           6976.19
     GW BOUNDARY FLOW =          52125.69       GW BOUNDARY FLOW =             24.03

   INFLOWS - OUTFLOWS =       -1.3564D+07     INFLOWS - OUTFLOWS =         -25085.66
             --------                                   --------

 TOTAL STORAGE CHANGE =       -1.3987D+07         STORAGE CHANGE =         -25077.42
       --------------                             --------------
         LAND SURFACE =          14037.98           LAND SURFACE =           -696.58
            SOIL ZONE =         218925.39              SOIL ZONE =          -9198.62
     UNSATURATED ZONE =        -475602.24       UNSATURATED ZONE =          -6949.68
       SATURATED ZONE =       -1.3745D+07         SATURATED ZONE =          -8233.07

 OVERALL BUDGET ERROR =         422966.15           BUDGET ERROR =             -8.25


  PERCENT DISCREPANCY =              0.29    PERCENT DISCREPANCY =             -0.03



1
 SUMMARY VOLUMETRIC BUDGET FOR GSFLOW 
 DATE: 10 22 1995              CUMULATIVE TIME STEP:      22
 MODFLOW STRESS PERIOD     62     CURRENT TIME STEP:    1848     ITERATIONS:       7

 -----------------------------------------------------------------------------------

   CUMULATIVE VOLUMES               L**3   RATES FOR THIS TIME STEP           L**3/T
   ------------------                      ------------------------

                                     IN                                         IN
                                     --                                         --
        PRECIPITATION =        1.3351D+08          PRECIPITATION =                  
           STREAMFLOW =                               STREAMFLOW =                  
     GW BOUNDARY FLOW =           5813.90       GW BOUNDARY FLOW =              4.08


                                    OUT                                        OUT
                                    ---                                        ---
   EVAPOTRANSPIRATION =        7.4846D+07     EVAPOTRANSPIRATION =           4705.68
           STREAMFLOW =        7.2334D+07             STREAMFLOW =           8141.73
     GW BOUNDARY FLOW =          52294.01       GW BOUNDARY FLOW =             24.14

   INFLOWS - OUTFLOWS =       -1.3718D+07     INFLOWS - OUTFLOWS =         -12867.46
             --------                                   --------

 TOTAL STORAGE CHANGE =       -1.4141D+07         STORAGE CHANGE =         -12868.24
       --------------                             --------------
         LAND SURFACE =          10452.80           LAND SURFACE =             -6.45
            SOIL ZONE =         168058.79              SOIL ZONE =          -2048.70
     UNSATURATED ZONE =        -522222.96       UNSATURATED ZONE =          -6179.30
       SATURATED ZONE =       -1.3798D+07         SATURATED ZONE =          -4634.33

 OVERALL BUDGET ERROR =         422913.89           BUDGET ERROR =              0.77


  PERCENT DISCREPANCY =              0.29    PERCENT DISCREPANCY =              0.01



1
 SUMMARY VOLUMETRIC BUDGET FOR GSFLOW 
 DATE: 10 29 1995              CUMULATIVE TIME STEP:      29
 MODFLOW STRESS PERIOD     62     CURRENT TIME STEP:    1855     ITERATIONS:      14

 -----------------------------------------------------------------------------------

   CUMULATIVE VOLUMES               L**3   RATES FOR THIS TIME STEP           L**3/T
   ------------------                      ------------------------

                                     IN                                         IN
                                     --                                         --
        PRECIPITATION =        1.3351D+08          PRECIPITATION =                  
           STREAMFLOW =                               STREAMFLOW =                  
     GW BOUNDARY FLOW =           5842.69       GW BOUNDARY FLOW =              4.14


                                    OUT                                        OUT
                                    ---                                        ---
   EVAPOTRANSPIRATION =        7.4912D+07     EVAPOTRANSPIRATION =          11338.94
           STREAMFLOW =        7.2388D+07             STREAMFLOW =           7485.44
     GW BOUNDARY FLOW =          52462.76       GW BOUNDARY FLOW =             24.09

   INFLOWS - OUTFLOWS =       -1.3838D+07     INFLOWS - OUTFLOWS =         -18844.33
             --------                                   --------

 TOTAL STORAGE CHANGE =       -1.4261D+07         STORAGE CHANGE =         -18837.96
       --------------                             --------------
         LAND SURFACE =           9254.99           LAND SURFACE =           -359.13
            SOIL ZONE =         138086.07              SOIL ZONE =          -5038.64
     UNSATURATED ZONE =        -566470.40       UNSATURATED ZONE =          -6238.80
       SATURATED ZONE =       -1.3843D+07         SATURATED ZONE =          -7201.93

 OVERALL BUDGET ERROR =         422887.73           BUDGET ERROR =             -6.36


  PERCENT DISCREPANCY =              0.29    PERCENT DISCREPANCY =             -0.03



 Number of time steps:   1857;  Number of non-convergence:   0
 MF iterations:         11618;  SZ iterations:           11546
 Average MF iterations:  6.26;  Average SZ iterations:    6.22
 Maximum MF iterations:   109;  Maximum SZ iterations:      50

mxsziter reached: 2

