1
 SUMMARY VOLUMETRIC BUDGET FOR GSFLOW 
 DATE: 10 07 1990              CUMULATIVE TIME STEP:       7
 MODFLOW STRESS PERIOD      2     CURRENT TIME STEP:       7     ITERATIONS:       7

 -----------------------------------------------------------------------------------

   CUMULATIVE VOLUMES               L**3   RATES FOR THIS TIME STEP           L**3/T
   ------------------                      ------------------------

                                     IN                                         IN
                                     --                                         --
        PRECIPITATION =                            PRECIPITATION =                  
           STREAMFLOW =                               STREAMFLOW =                  
     GW BOUNDARY FLOW =                         GW BOUNDARY FLOW =                  


                                    OUT                                        OUT
                                    ---                                        ---
   EVAPOTRANSPIRATION =         382488.20     EVAPOTRANSPIRATION =          12595.52
           STREAMFLOW =          45685.28             STREAMFLOW =           8118.02
     GW BOUNDARY FLOW =            252.78       GW BOUNDARY FLOW =             36.30

   INFLOWS - OUTFLOWS =        -428426.26     INFLOWS - OUTFLOWS =         -20749.84
             --------                                   --------

 TOTAL STORAGE CHANGE =        -426950.28         STORAGE CHANGE =         -20721.64
       --------------                             --------------
         LAND SURFACE =                             LAND SURFACE =                  
            SOIL ZONE =         -33335.62              SOIL ZONE =          -1004.93
     UNSATURATED ZONE =        -500605.56       UNSATURATED ZONE =         -34262.62
       SATURATED ZONE =         106990.91         SATURATED ZONE =          14545.91

 OVERALL BUDGET ERROR =          -1475.99           BUDGET ERROR =            -28.21


  PERCENT DISCREPANCY =             -0.35    PERCENT DISCREPANCY =             -0.14



1
 SUMMARY VOLUMETRIC BUDGET FOR GSFLOW 
 DATE: 10 14 1990              CUMULATIVE TIME STEP:      14
 MODFLOW STRESS PERIOD      2     CURRENT TIME STEP:      14     ITERATIONS:       6

 -----------------------------------------------------------------------------------

   CUMULATIVE VOLUMES               L**3   RATES FOR THIS TIME STEP           L**3/T
   ------------------                      ------------------------

                                     IN                                         IN
                                     --                                         --
        PRECIPITATION =                            PRECIPITATION =                  
           STREAMFLOW =                               STREAMFLOW =                  
     GW BOUNDARY FLOW =                         GW BOUNDARY FLOW =                  


                                    OUT                                        OUT
                                    ---                                        ---
   EVAPOTRANSPIRATION =         661838.41     EVAPOTRANSPIRATION =          42904.18
           STREAMFLOW =         100423.61             STREAMFLOW =           7406.74
     GW BOUNDARY FLOW =            506.62       GW BOUNDARY FLOW =             36.24

   INFLOWS - OUTFLOWS =        -762768.64     INFLOWS - OUTFLOWS =         -50347.16
             --------                                   --------

 TOTAL STORAGE CHANGE =        -761007.50         STORAGE CHANGE =         -50326.18
       --------------                             --------------
         LAND SURFACE =                             LAND SURFACE =                  
            SOIL ZONE =         -58141.47              SOIL ZONE =          -4431.92
     UNSATURATED ZONE =        -875037.45       UNSATURATED ZONE =         -52611.78
       SATURATED ZONE =         172171.41         SATURATED ZONE =           6717.52

 OVERALL BUDGET ERROR =          -1761.13           BUDGET ERROR =            -20.98


  PERCENT DISCREPANCY =             -0.23    PERCENT DISCREPANCY =             -0.04



1
 SUMMARY VOLUMETRIC BUDGET FOR GSFLOW 
 DATE: 10 21 1990              CUMULATIVE TIME STEP:      21
 MODFLOW STRESS PERIOD      2     CURRENT TIME STEP:      21     ITERATIONS:       6

 -----------------------------------------------------------------------------------

   CUMULATIVE VOLUMES               L**3   RATES FOR THIS TIME STEP           L**3/T
   ------------------                      ------------------------

                                     IN                                         IN
                                     --                                         --
        PRECIPITATION =         188432.87          PRECIPITATION =                  
           STREAMFLOW =                               STREAMFLOW =                  
     GW BOUNDARY FLOW =                         GW BOUNDARY FLOW =                  


                                    OUT                                        OUT
                                    ---                                        ---
   EVAPOTRANSPIRATION =         804135.73     EVAPOTRANSPIRATION =          36525.61
           STREAMFLOW =         163339.03             STREAMFLOW =          10130.26
     GW BOUNDARY FLOW =            760.80       GW BOUNDARY FLOW =             36.37

   INFLOWS - OUTFLOWS =        -779802.70     INFLOWS - OUTFLOWS =         -46692.24
             --------                                   --------

 TOTAL STORAGE CHANGE =        -778306.98         STORAGE CHANGE =         -46696.58
       --------------                             --------------
         LAND SURFACE =          15977.62           LAND SURFACE =         -34861.64
            SOIL ZONE =          57108.56              SOIL ZONE =           -453.46
     UNSATURATED ZONE =       -1087225.81       UNSATURATED ZONE =         -21998.55
       SATURATED ZONE =         235832.65         SATURATED ZONE =          10617.06

 OVERALL BUDGET ERROR =          -1495.72           BUDGET ERROR =              4.34


  PERCENT DISCREPANCY =             -0.15    PERCENT DISCREPANCY =              0.01



1
 SUMMARY VOLUMETRIC BUDGET FOR GSFLOW 
 DATE: 10 28 1990              CUMULATIVE TIME STEP:      28
 MODFLOW STRESS PERIOD      2     CURRENT TIME STEP:      28     ITERATIONS:       7

 -----------------------------------------------------------------------------------

   CUMULATIVE VOLUMES               L**3   RATES FOR THIS TIME STEP           L**3/T
   ------------------                      ------------------------

                                     IN                                         IN
                                     --                                         --
        PRECIPITATION =         188432.87          PRECIPITATION =                  
           STREAMFLOW =                               STREAMFLOW =                  
     GW BOUNDARY FLOW =                         GW BOUNDARY FLOW =                  


                                    OUT                                        OUT
                                    ---                                        ---
   EVAPOTRANSPIRATION =         929250.79     EVAPOTRANSPIRATION =          11273.21
           STREAMFLOW =         224837.03             STREAMFLOW =           8972.24
     GW BOUNDARY FLOW =           1013.99       GW BOUNDARY FLOW =             36.13

   INFLOWS - OUTFLOWS =        -966668.94     INFLOWS - OUTFLOWS =         -20281.57
             --------                                   --------

 TOTAL STORAGE CHANGE =        -965159.49         STORAGE CHANGE =         -20281.32
       --------------                             --------------
         LAND SURFACE =                             LAND SURFACE =                  
            SOIL ZONE =          28813.80              SOIL ZONE =          -3320.97
     UNSATURATED ZONE =       -1271571.34       UNSATURATED ZONE =         -23139.83
       SATURATED ZONE =         277598.04         SATURATED ZONE =           6179.48

 OVERALL BUDGET ERROR =          -1509.45           BUDGET ERROR =             -0.25


  PERCENT DISCREPANCY =             -0.13    PERCENT DISCREPANCY =             -0.00



1
 SUMMARY VOLUMETRIC BUDGET FOR GSFLOW 
 DATE: 11 04 1990              CUMULATIVE TIME STEP:       4
 MODFLOW STRESS PERIOD      3     CURRENT TIME STEP:      35     ITERATIONS:       6

 -----------------------------------------------------------------------------------

   CUMULATIVE VOLUMES               L**3   RATES FOR THIS TIME STEP           L**3/T
   ------------------                      ------------------------

                                     IN                                         IN
                                     --                                         --
        PRECIPITATION =         703113.06          PRECIPITATION =                  
           STREAMFLOW =                               STREAMFLOW =                  
     GW BOUNDARY FLOW =                         GW BOUNDARY FLOW =                  


                                    OUT                                        OUT
                                    ---                                        ---
   EVAPOTRANSPIRATION =         988500.84     EVAPOTRANSPIRATION =          25493.99
           STREAMFLOW =         295899.89             STREAMFLOW =          10646.21
     GW BOUNDARY FLOW =           1267.04       GW BOUNDARY FLOW =             36.13

   INFLOWS - OUTFLOWS =        -582554.72     INFLOWS - OUTFLOWS =         -36176.34
             --------                                   --------

 TOTAL STORAGE CHANGE =        -582332.10         STORAGE CHANGE =         -36493.33
       --------------                             --------------
         LAND SURFACE =          71009.70           LAND SURFACE =         -84159.07
            SOIL ZONE =         425512.16              SOIL ZONE =          58398.80
     UNSATURATED ZONE =       -1417090.71       UNSATURATED ZONE =         -20044.91
       SATURATED ZONE =         338236.74         SATURATED ZONE =           9311.84

 OVERALL BUDGET ERROR =           -222.61           BUDGET ERROR =            316.99


  PERCENT DISCREPANCY =             -0.02    PERCENT DISCREPANCY =              0.87



1
 SUMMARY VOLUMETRIC BUDGET FOR GSFLOW 
 DATE: 11 11 1990              CUMULATIVE TIME STEP:      11
 MODFLOW STRESS PERIOD      3     CURRENT TIME STEP:      42     ITERATIONS:       6

 -----------------------------------------------------------------------------------

   CUMULATIVE VOLUMES               L**3   RATES FOR THIS TIME STEP           L**3/T
   ------------------                      ------------------------

                                     IN                                         IN
                                     --                                         --
        PRECIPITATION =         703113.06          PRECIPITATION =                  
           STREAMFLOW =                               STREAMFLOW =                  
     GW BOUNDARY FLOW =                         GW BOUNDARY FLOW =                  


                                    OUT                                        OUT
                                    ---                                        ---
   EVAPOTRANSPIRATION =        1061160.55     EVAPOTRANSPIRATION =          12476.27
           STREAMFLOW =         367048.05             STREAMFLOW =           9667.21
     GW BOUNDARY FLOW =           1519.15       GW BOUNDARY FLOW =             35.93

   INFLOWS - OUTFLOWS =        -726614.69     INFLOWS - OUTFLOWS =         -22179.40
             --------                                   --------

 TOTAL STORAGE CHANGE =        -726418.58         STORAGE CHANGE =         -22182.21
       --------------                             --------------
         LAND SURFACE =            295.92           LAND SURFACE =           -859.89
            SOIL ZONE =         442478.45              SOIL ZONE =          -6305.98
     UNSATURATED ZONE =       -1556855.69       UNSATURATED ZONE =         -19964.78
       SATURATED ZONE =         387662.71         SATURATED ZONE =           4948.44

 OVERALL BUDGET ERROR =           -196.11           BUDGET ERROR =              2.80


  PERCENT DISCREPANCY =             -0.01    PERCENT DISCREPANCY =              0.01



1
 SUMMARY VOLUMETRIC BUDGET FOR GSFLOW 
 DATE: 11 18 1990              CUMULATIVE TIME STEP:      18
 MODFLOW STRESS PERIOD      3     CURRENT TIME STEP:      49     ITERATIONS:       6

 -----------------------------------------------------------------------------------

   CUMULATIVE VOLUMES               L**3   RATES FOR THIS TIME STEP           L**3/T
   ------------------                      ------------------------

                                     IN                                         IN
                                     --                                         --
        PRECIPITATION =         747883.35          PRECIPITATION =                  
           STREAMFLOW =                               STREAMFLOW =                  
     GW BOUNDARY FLOW =                         GW BOUNDARY FLOW =                  


                                    OUT                                        OUT
                                    ---                                        ---
   EVAPOTRANSPIRATION =        1130051.83     EVAPOTRANSPIRATION =           5352.44
           STREAMFLOW =         438880.11             STREAMFLOW =          10692.27
     GW BOUNDARY FLOW =           1770.46       GW BOUNDARY FLOW =             35.88

   INFLOWS - OUTFLOWS =        -822819.06     INFLOWS - OUTFLOWS =         -16080.60
             --------                                   --------

 TOTAL STORAGE CHANGE =        -822643.91         STORAGE CHANGE =         -16084.25
       --------------                             --------------
         LAND SURFACE =          10077.61           LAND SURFACE =          -4199.79
            SOIL ZONE =         425210.54              SOIL ZONE =           -593.19
     UNSATURATED ZONE =       -1690329.62       UNSATURATED ZONE =         -18628.27
       SATURATED ZONE =         432397.52         SATURATED ZONE =           7336.99

 OVERALL BUDGET ERROR =           -175.15           BUDGET ERROR =              3.66


  PERCENT DISCREPANCY =             -0.01    PERCENT DISCREPANCY =              0.02



1
 SUMMARY VOLUMETRIC BUDGET FOR GSFLOW 
 DATE: 11 25 1990              CUMULATIVE TIME STEP:      25
 MODFLOW STRESS PERIOD      3     CURRENT TIME STEP:      56     ITERATIONS:       6

 -----------------------------------------------------------------------------------

   CUMULATIVE VOLUMES               L**3   RATES FOR THIS TIME STEP           L**3/T
   ------------------                      ------------------------

                                     IN                                         IN
                                     --                                         --
        PRECIPITATION =        1009043.38          PRECIPITATION =         186542.88
           STREAMFLOW =                               STREAMFLOW =                  
     GW BOUNDARY FLOW =                         GW BOUNDARY FLOW =                  


                                    OUT                                        OUT
                                    ---                                        ---
   EVAPOTRANSPIRATION =        1189863.75     EVAPOTRANSPIRATION =           3825.38
           STREAMFLOW =         514922.85             STREAMFLOW =          10890.80
     GW BOUNDARY FLOW =           2021.40       GW BOUNDARY FLOW =             35.79

   INFLOWS - OUTFLOWS =        -697764.63     INFLOWS - OUTFLOWS =         171790.91
             --------                                   --------

 TOTAL STORAGE CHANGE =        -697976.71         STORAGE CHANGE =         171423.19
       --------------                             --------------
         LAND SURFACE =          92124.67           LAND SURFACE =          75233.82
            SOIL ZONE =         546061.29              SOIL ZONE =         107771.33
     UNSATURATED ZONE =       -1817926.35       UNSATURATED ZONE =         -17921.71
       SATURATED ZONE =         481763.61         SATURATED ZONE =           6339.75

 OVERALL BUDGET ERROR =            212.08           BUDGET ERROR =            367.71


  PERCENT DISCREPANCY =              0.01    PERCENT DISCREPANCY =              0.20



1
 SUMMARY VOLUMETRIC BUDGET FOR GSFLOW 
 DATE: 12 02 1990              CUMULATIVE TIME STEP:       2
 MODFLOW STRESS PERIOD      4     CURRENT TIME STEP:      63     ITERATIONS:       6

 -----------------------------------------------------------------------------------

   CUMULATIVE VOLUMES               L**3   RATES FOR THIS TIME STEP           L**3/T
   ------------------                      ------------------------

                                     IN                                         IN
                                     --                                         --
        PRECIPITATION =        1449284.55          PRECIPITATION =                  
           STREAMFLOW =                               STREAMFLOW =                  
     GW BOUNDARY FLOW =                         GW BOUNDARY FLOW =                  


                                    OUT                                        OUT
                                    ---                                        ---
   EVAPOTRANSPIRATION =        1197432.17     EVAPOTRANSPIRATION =            374.47
           STREAMFLOW =         592181.01             STREAMFLOW =          11082.19
     GW BOUNDARY FLOW =           2271.89       GW BOUNDARY FLOW =             35.77

   INFLOWS - OUTFLOWS =        -342600.51     INFLOWS - OUTFLOWS =         -11492.43
             --------                                   --------

 TOTAL STORAGE CHANGE =        -343126.53         STORAGE CHANGE =         -11494.27
       --------------                             --------------
         LAND SURFACE =         493448.43           LAND SURFACE =           -453.37
            SOIL ZONE =         577431.57              SOIL ZONE =            132.12
     UNSATURATED ZONE =       -1940784.06       UNSATURATED ZONE =         -17259.32
       SATURATED ZONE =         526777.45         SATURATED ZONE =           6086.29

 OVERALL BUDGET ERROR =            526.01           BUDGET ERROR =              1.84


  PERCENT DISCREPANCY =              0.03    PERCENT DISCREPANCY =              0.02



1
 SUMMARY VOLUMETRIC BUDGET FOR GSFLOW 
 DATE: 12 09 1990              CUMULATIVE TIME STEP:       9
 MODFLOW STRESS PERIOD      4     CURRENT TIME STEP:      70     ITERATIONS:       6

 -----------------------------------------------------------------------------------

   CUMULATIVE VOLUMES               L**3   RATES FOR THIS TIME STEP           L**3/T
   ------------------                      ------------------------

                                     IN                                         IN
                                     --                                         --
        PRECIPITATION =        1449284.55          PRECIPITATION =                  
           STREAMFLOW =                               STREAMFLOW =                  
     GW BOUNDARY FLOW =                         GW BOUNDARY FLOW =                  


                                    OUT                                        OUT
                                    ---                                        ---
   EVAPOTRANSPIRATION =        1274317.89     EVAPOTRANSPIRATION =          13594.09
           STREAMFLOW =         669869.37             STREAMFLOW =          10877.07
     GW BOUNDARY FLOW =           2521.84       GW BOUNDARY FLOW =             35.64

   INFLOWS - OUTFLOWS =        -497424.55     INFLOWS - OUTFLOWS =         -24506.81
             --------                                   --------

 TOTAL STORAGE CHANGE =        -499042.62         STORAGE CHANGE =         -24512.01
       --------------                             --------------
         LAND SURFACE =          66382.66           LAND SURFACE =         -46525.53
            SOIL ZONE =         930275.29              SOIL ZONE =          34767.70
     UNSATURATED ZONE =       -2058572.15       UNSATURATED ZONE =         -16495.64
       SATURATED ZONE =         562871.46         SATURATED ZONE =           3741.45

 OVERALL BUDGET ERROR =           1618.07           BUDGET ERROR =              5.20


  PERCENT DISCREPANCY =              0.08    PERCENT DISCREPANCY =              0.02



1
 SUMMARY VOLUMETRIC BUDGET FOR GSFLOW 
 DATE: 12 16 1990              CUMULATIVE TIME STEP:      16
 MODFLOW STRESS PERIOD      4     CURRENT TIME STEP:      77     ITERATIONS:       6

 -----------------------------------------------------------------------------------

   CUMULATIVE VOLUMES               L**3   RATES FOR THIS TIME STEP           L**3/T
   ------------------                      ------------------------

                                     IN                                         IN
                                     --                                         --
        PRECIPITATION =        1804962.84          PRECIPITATION =                  
           STREAMFLOW =                               STREAMFLOW =                  
     GW BOUNDARY FLOW =                         GW BOUNDARY FLOW =                  


                                    OUT                                        OUT
                                    ---                                        ---
   EVAPOTRANSPIRATION =        1302627.94     EVAPOTRANSPIRATION =                  
           STREAMFLOW =         749588.63             STREAMFLOW =          11518.52
     GW BOUNDARY FLOW =           2771.25       GW BOUNDARY FLOW =             35.61

   INFLOWS - OUTFLOWS =        -250024.97     INFLOWS - OUTFLOWS =         -11554.13
             --------                                   --------

 TOTAL STORAGE CHANGE =        -252154.75         STORAGE CHANGE =         -11554.67
       --------------                             --------------
         LAND SURFACE =         256077.36           LAND SURFACE =                  
            SOIL ZONE =        1070215.71              SOIL ZONE =            -13.80
     UNSATURATED ZONE =       -2171956.94       UNSATURATED ZONE =         -15943.75
       SATURATED ZONE =         593508.97         SATURATED ZONE =           4402.88

 OVERALL BUDGET ERROR =           2129.77           BUDGET ERROR =              0.54


  PERCENT DISCREPANCY =              0.10    PERCENT DISCREPANCY =              0.00



1
 SUMMARY VOLUMETRIC BUDGET FOR GSFLOW 
 DATE: 12 23 1990              CUMULATIVE TIME STEP:      23
 MODFLOW STRESS PERIOD      4     CURRENT TIME STEP:      84     ITERATIONS:       6

 -----------------------------------------------------------------------------------

   CUMULATIVE VOLUMES               L**3   RATES FOR THIS TIME STEP           L**3/T
   ------------------                      ------------------------

                                     IN                                         IN
                                     --                                         --
        PRECIPITATION =        2276236.55          PRECIPITATION =                  
           STREAMFLOW =                               STREAMFLOW =                  
     GW BOUNDARY FLOW =              0.08       GW BOUNDARY FLOW =              0.04


                                    OUT                                        OUT
                                    ---                                        ---
   EVAPOTRANSPIRATION =        1304002.54     EVAPOTRANSPIRATION =                  
           STREAMFLOW =         830420.92             STREAMFLOW =          11567.67
     GW BOUNDARY FLOW =           3020.28       GW BOUNDARY FLOW =             35.57

   INFLOWS - OUTFLOWS =         138792.89     INFLOWS - OUTFLOWS =         -11603.20
             --------                                   --------

 TOTAL STORAGE CHANGE =         136662.65         STORAGE CHANGE =         -11602.87
       --------------                             --------------
         LAND SURFACE =         725980.66           LAND SURFACE =                  
            SOIL ZONE =        1070451.81              SOIL ZONE =             62.09
     UNSATURATED ZONE =       -2281147.31       UNSATURATED ZONE =         -15350.82
       SATURATED ZONE =         621377.30         SATURATED ZONE =           3685.85

 OVERALL BUDGET ERROR =           2130.23           BUDGET ERROR =             -0.33


  PERCENT DISCREPANCY =              0.09    PERCENT DISCREPANCY =             -0.00



1
 SUMMARY VOLUMETRIC BUDGET FOR GSFLOW 
 DATE: 12 30 1990              CUMULATIVE TIME STEP:      30
 MODFLOW STRESS PERIOD      4     CURRENT TIME STEP:      91     ITERATIONS:       5

 -----------------------------------------------------------------------------------

   CUMULATIVE VOLUMES               L**3   RATES FOR THIS TIME STEP           L**3/T
   ------------------                      ------------------------

                                     IN                                         IN
                                     --                                         --
        PRECIPITATION =        2276236.55          PRECIPITATION =                  
           STREAMFLOW =                               STREAMFLOW =                  
     GW BOUNDARY FLOW =              0.77       GW BOUNDARY FLOW =              0.14


                                    OUT                                        OUT
                                    ---                                        ---
   EVAPOTRANSPIRATION =        1304755.18     EVAPOTRANSPIRATION =                  
           STREAMFLOW =         911667.04             STREAMFLOW =          11638.99
     GW BOUNDARY FLOW =           3269.39       GW BOUNDARY FLOW =             35.60

   INFLOWS - OUTFLOWS =          56545.72     INFLOWS - OUTFLOWS =         -11674.45
             --------                                   --------

 TOTAL STORAGE CHANGE =          54426.35         STORAGE CHANGE =         -11671.90
       --------------                             --------------
         LAND SURFACE =         725228.17           LAND SURFACE =                  
            SOIL ZONE =        1071085.55              SOIL ZONE =            109.51
     UNSATURATED ZONE =       -2386449.76       UNSATURATED ZONE =         -14806.80
       SATURATED ZONE =         644562.16         SATURATED ZONE =           3025.39

 OVERALL BUDGET ERROR =           2119.37           BUDGET ERROR =             -2.54


  PERCENT DISCREPANCY =              0.09    PERCENT DISCREPANCY =             -0.02



1
 SUMMARY VOLUMETRIC BUDGET FOR GSFLOW 
 DATE: 01 06 1991              CUMULATIVE TIME STEP:       6
 MODFLOW STRESS PERIOD      5     CURRENT TIME STEP:      98     ITERATIONS:       5

 -----------------------------------------------------------------------------------

   CUMULATIVE VOLUMES               L**3   RATES FOR THIS TIME STEP           L**3/T
   ------------------                      ------------------------

                                     IN                                         IN
                                     --                                         --
        PRECIPITATION =        2276236.55          PRECIPITATION =                  
           STREAMFLOW =                               STREAMFLOW =                  
     GW BOUNDARY FLOW =              2.09       GW BOUNDARY FLOW =              0.22


                                    OUT                                        OUT
                                    ---                                        ---
   EVAPOTRANSPIRATION =        1328023.73     EVAPOTRANSPIRATION =           2582.15
           STREAMFLOW =         993560.31             STREAMFLOW =          11737.81
     GW BOUNDARY FLOW =           3519.26       GW BOUNDARY FLOW =             35.75

   INFLOWS - OUTFLOWS =         -48864.65     INFLOWS - OUTFLOWS =         -14355.48
             --------                                   --------

 TOTAL STORAGE CHANGE =         -51599.83         STORAGE CHANGE =         -14377.56
       --------------                             --------------
         LAND SURFACE =         620283.30           LAND SURFACE =          -6112.33
            SOIL ZONE =        1152886.71              SOIL ZONE =           3609.28
     UNSATURATED ZONE =       -2487796.45       UNSATURATED ZONE =         -14236.35
       SATURATED ZONE =         663026.33         SATURATED ZONE =           2361.84

 OVERALL BUDGET ERROR =           2735.18           BUDGET ERROR =             22.08


  PERCENT DISCREPANCY =              0.12    PERCENT DISCREPANCY =              0.15



1
 SUMMARY VOLUMETRIC BUDGET FOR GSFLOW 
 DATE: 01 13 1991              CUMULATIVE TIME STEP:      13
 MODFLOW STRESS PERIOD      5     CURRENT TIME STEP:     105     ITERATIONS:       6

 -----------------------------------------------------------------------------------

   CUMULATIVE VOLUMES               L**3   RATES FOR THIS TIME STEP           L**3/T
   ------------------                      ------------------------

                                     IN                                         IN
                                     --                                         --
        PRECIPITATION =        2596386.94          PRECIPITATION =          10327.43
           STREAMFLOW =                               STREAMFLOW =                  
     GW BOUNDARY FLOW =              4.02       GW BOUNDARY FLOW =              0.31


                                    OUT                                        OUT
                                    ---                                        ---
   EVAPOTRANSPIRATION =        1387850.27     EVAPOTRANSPIRATION =          16654.75
           STREAMFLOW =        1075832.01             STREAMFLOW =          11684.01
     GW BOUNDARY FLOW =           3769.48       GW BOUNDARY FLOW =             35.73

   INFLOWS - OUTFLOWS =         128939.21     INFLOWS - OUTFLOWS =         -18046.75
             --------                                   --------

 TOTAL STORAGE CHANGE =         124962.75         STORAGE CHANGE =         -18323.66
       --------------                             --------------
         LAND SURFACE =         586364.86           LAND SURFACE =        -135127.18
            SOIL ZONE =        1447896.92              SOIL ZONE =         129540.51
     UNSATURATED ZONE =       -2585083.10       UNSATURATED ZONE =         -13705.20
       SATURATED ZONE =         675783.75         SATURATED ZONE =            968.20

 OVERALL BUDGET ERROR =           3976.45           BUDGET ERROR =            276.91


  PERCENT DISCREPANCY =              0.15    PERCENT DISCREPANCY =              0.97



1
 SUMMARY VOLUMETRIC BUDGET FOR GSFLOW 
 DATE: 01 20 1991              CUMULATIVE TIME STEP:      20
 MODFLOW STRESS PERIOD      5     CURRENT TIME STEP:     112     ITERATIONS:       5

 -----------------------------------------------------------------------------------

   CUMULATIVE VOLUMES               L**3   RATES FOR THIS TIME STEP           L**3/T
   ------------------                      ------------------------

                                     IN                                         IN
                                     --                                         --
        PRECIPITATION =        2596386.94          PRECIPITATION =                  
           STREAMFLOW =                               STREAMFLOW =                  
     GW BOUNDARY FLOW =              6.55       GW BOUNDARY FLOW =              0.40


                                    OUT                                        OUT
                                    ---                                        ---
   EVAPOTRANSPIRATION =        1456058.12     EVAPOTRANSPIRATION =           1810.20
           STREAMFLOW =        1158886.12             STREAMFLOW =          11895.06
     GW BOUNDARY FLOW =           4019.72       GW BOUNDARY FLOW =             35.75

   INFLOWS - OUTFLOWS =         -22570.48     INFLOWS - OUTFLOWS =         -13740.61
             --------                                   --------

 TOTAL STORAGE CHANGE =         -26654.57         STORAGE CHANGE =         -13732.79
       --------------                             --------------
         LAND SURFACE =         422210.59           LAND SURFACE =           -295.67
            SOIL ZONE =        1544967.20              SOIL ZONE =          -1433.40
     UNSATURATED ZONE =       -2678446.88       UNSATURATED ZONE =         -13118.78
       SATURATED ZONE =         684614.13         SATURATED ZONE =           1115.06

 OVERALL BUDGET ERROR =           4084.10           BUDGET ERROR =             -7.82


  PERCENT DISCREPANCY =              0.16    PERCENT DISCREPANCY =             -0.06



1
 SUMMARY VOLUMETRIC BUDGET FOR GSFLOW 
 DATE: 01 27 1991              CUMULATIVE TIME STEP:      27
 MODFLOW STRESS PERIOD      5     CURRENT TIME STEP:     119     ITERATIONS:       5

 -----------------------------------------------------------------------------------

   CUMULATIVE VOLUMES               L**3   RATES FOR THIS TIME STEP           L**3/T
   ------------------                      ------------------------

                                     IN                                         IN
                                     --                                         --
        PRECIPITATION =        2596386.94          PRECIPITATION =                  
           STREAMFLOW =                               STREAMFLOW =                  
     GW BOUNDARY FLOW =              9.66       GW BOUNDARY FLOW =              0.48


                                    OUT                                        OUT
                                    ---                                        ---
   EVAPOTRANSPIRATION =        1477037.68     EVAPOTRANSPIRATION =           1215.88
           STREAMFLOW =        1242125.09             STREAMFLOW =          11916.90
     GW BOUNDARY FLOW =           4269.93       GW BOUNDARY FLOW =             35.74

   INFLOWS - OUTFLOWS =        -127036.10     INFLOWS - OUTFLOWS =         -13168.04
             --------                                   --------

 TOTAL STORAGE CHANGE =        -131075.12         STORAGE CHANGE =         -13158.92
       --------------                             --------------
         LAND SURFACE =         394226.40           LAND SURFACE =           -109.80
            SOIL ZONE =        1553166.94              SOIL ZONE =          -1000.72
     UNSATURATED ZONE =       -2768315.53       UNSATURATED ZONE =         -12615.95
       SATURATED ZONE =         689846.63         SATURATED ZONE =            567.54

 OVERALL BUDGET ERROR =           4039.02           BUDGET ERROR =             -9.12


  PERCENT DISCREPANCY =              0.15    PERCENT DISCREPANCY =             -0.07



1
 SUMMARY VOLUMETRIC BUDGET FOR GSFLOW 
 DATE: 02 03 1991              CUMULATIVE TIME STEP:       3
 MODFLOW STRESS PERIOD      6     CURRENT TIME STEP:     126     ITERATIONS:       6

 -----------------------------------------------------------------------------------

   CUMULATIVE VOLUMES               L**3   RATES FOR THIS TIME STEP           L**3/T
   ------------------                      ------------------------

                                     IN                                         IN
                                     --                                         --
        PRECIPITATION =        3228422.31          PRECIPITATION =          30459.53
           STREAMFLOW =                               STREAMFLOW =                  
     GW BOUNDARY FLOW =             13.31       GW BOUNDARY FLOW =              0.55


                                    OUT                                        OUT
                                    ---                                        ---
   EVAPOTRANSPIRATION =        1575385.10     EVAPOTRANSPIRATION =          20004.18
           STREAMFLOW =        1326889.13             STREAMFLOW =          12220.84
     GW BOUNDARY FLOW =           4520.10       GW BOUNDARY FLOW =             35.74

   INFLOWS - OUTFLOWS =         321641.30     INFLOWS - OUTFLOWS =          -1800.67
             --------                                   --------

 TOTAL STORAGE CHANGE =         315809.77         STORAGE CHANGE =          -1888.12
       --------------                             --------------
         LAND SURFACE =         184727.70           LAND SURFACE =         -28670.24
            SOIL ZONE =        2296228.13              SOIL ZONE =          39144.85
     UNSATURATED ZONE =       -2855041.65       UNSATURATED ZONE =         -12238.24
       SATURATED ZONE =         689895.08         SATURATED ZONE =           -124.51

 OVERALL BUDGET ERROR =           5831.53           BUDGET ERROR =             87.45


  PERCENT DISCREPANCY =              0.18    PERCENT DISCREPANCY =              0.27



1
 SUMMARY VOLUMETRIC BUDGET FOR GSFLOW 
 DATE: 02 10 1991              CUMULATIVE TIME STEP:      10
 MODFLOW STRESS PERIOD      6     CURRENT TIME STEP:     133     ITERATIONS:       5

 -----------------------------------------------------------------------------------

   CUMULATIVE VOLUMES               L**3   RATES FOR THIS TIME STEP           L**3/T
   ------------------                      ------------------------

                                     IN                                         IN
                                     --                                         --
        PRECIPITATION =        3510173.01          PRECIPITATION =                  
           STREAMFLOW =                               STREAMFLOW =                  
     GW BOUNDARY FLOW =             17.49       GW BOUNDARY FLOW =              0.63


                                    OUT                                        OUT
                                    ---                                        ---
   EVAPOTRANSPIRATION =        1740860.70     EVAPOTRANSPIRATION =          25306.49
           STREAMFLOW =        1412914.29             STREAMFLOW =          12161.07
     GW BOUNDARY FLOW =           4770.18       GW BOUNDARY FLOW =             35.72

   INFLOWS - OUTFLOWS =         351645.33     INFLOWS - OUTFLOWS =         -37502.65
             --------                                   --------

 TOTAL STORAGE CHANGE =         345141.92         STORAGE CHANGE =         -37490.54
       --------------                             --------------
         LAND SURFACE =          90050.80           LAND SURFACE =         -12330.62
            SOIL ZONE =        2505707.74              SOIL ZONE =         -12792.94
     UNSATURATED ZONE =       -2938246.98       UNSATURATED ZONE =         -11742.81
       SATURATED ZONE =         687629.77         SATURATED ZONE =           -624.19

 OVERALL BUDGET ERROR =           6503.41           BUDGET ERROR =            -12.11


  PERCENT DISCREPANCY =              0.19    PERCENT DISCREPANCY =             -0.03



1
 SUMMARY VOLUMETRIC BUDGET FOR GSFLOW 
 DATE: 02 17 1991              CUMULATIVE TIME STEP:      17
 MODFLOW STRESS PERIOD      6     CURRENT TIME STEP:     140     ITERATIONS:       5

 -----------------------------------------------------------------------------------

   CUMULATIVE VOLUMES               L**3   RATES FOR THIS TIME STEP           L**3/T
   ------------------                      ------------------------

                                     IN                                         IN
                                     --                                         --
        PRECIPITATION =        3510173.01          PRECIPITATION =                  
           STREAMFLOW =                               STREAMFLOW =                  
     GW BOUNDARY FLOW =             22.16       GW BOUNDARY FLOW =              0.70


                                    OUT                                        OUT
                                    ---                                        ---
   EVAPOTRANSPIRATION =        1980963.59     EVAPOTRANSPIRATION =          23092.64
           STREAMFLOW =        1497692.27             STREAMFLOW =          12114.00
     GW BOUNDARY FLOW =           5020.11       GW BOUNDARY FLOW =             35.68

   INFLOWS - OUTFLOWS =          26519.20     INFLOWS - OUTFLOWS =         -35241.63
             --------                                   --------

 TOTAL STORAGE CHANGE =          20106.59         STORAGE CHANGE =         -35227.90
       --------------                             --------------
         LAND SURFACE =          18163.74           LAND SURFACE =          -1654.25
            SOIL ZONE =        2338795.36              SOIL ZONE =         -21440.91
     UNSATURATED ZONE =       -3018018.35       UNSATURATED ZONE =         -11047.51
       SATURATED ZONE =         681165.16         SATURATED ZONE =          -1085.23

 OVERALL BUDGET ERROR =           6412.61           BUDGET ERROR =            -13.73


  PERCENT DISCREPANCY =              0.18    PERCENT DISCREPANCY =             -0.04



1
 SUMMARY VOLUMETRIC BUDGET FOR GSFLOW 
 DATE: 02 24 1991              CUMULATIVE TIME STEP:      24
 MODFLOW STRESS PERIOD      6     CURRENT TIME STEP:     147     ITERATIONS:       5

 -----------------------------------------------------------------------------------

   CUMULATIVE VOLUMES               L**3   RATES FOR THIS TIME STEP           L**3/T
   ------------------                      ------------------------

                                     IN                                         IN
                                     --                                         --
        PRECIPITATION =        3510173.01          PRECIPITATION =                  
           STREAMFLOW =                               STREAMFLOW =                  
     GW BOUNDARY FLOW =             27.31       GW BOUNDARY FLOW =              0.76


                                    OUT                                        OUT
                                    ---                                        ---
   EVAPOTRANSPIRATION =        2196125.06     EVAPOTRANSPIRATION =          21916.96
           STREAMFLOW =        1582056.45             STREAMFLOW =          12040.17
     GW BOUNDARY FLOW =           5269.17       GW BOUNDARY FLOW =             35.51

   INFLOWS - OUTFLOWS =        -273250.36     INFLOWS - OUTFLOWS =         -33991.87
             --------                                   --------

 TOTAL STORAGE CHANGE =        -279560.16         STORAGE CHANGE =         -33976.41
       --------------                             --------------
         LAND SURFACE =           6686.42           LAND SURFACE =           -239.07
            SOIL ZONE =        2136085.95              SOIL ZONE =         -21502.71
     UNSATURATED ZONE =       -3093712.53       UNSATURATED ZONE =         -10649.46
       SATURATED ZONE =         671379.23         SATURATED ZONE =          -1585.18

 OVERALL BUDGET ERROR =           6309.80           BUDGET ERROR =            -15.46


  PERCENT DISCREPANCY =              0.17    PERCENT DISCREPANCY =             -0.05



1
 SUMMARY VOLUMETRIC BUDGET FOR GSFLOW 
 DATE: 03 03 1991              CUMULATIVE TIME STEP:       3
 MODFLOW STRESS PERIOD      7     CURRENT TIME STEP:     154     ITERATIONS:       5

 -----------------------------------------------------------------------------------

   CUMULATIVE VOLUMES               L**3   RATES FOR THIS TIME STEP           L**3/T
   ------------------                      ------------------------

                                     IN                                         IN
                                     --                                         --
        PRECIPITATION =        6220189.63          PRECIPITATION =        1243187.24
           STREAMFLOW =                               STREAMFLOW =                  
     GW BOUNDARY FLOW =             32.91       GW BOUNDARY FLOW =              0.83


                                    OUT                                        OUT
                                    ---                                        ---
   EVAPOTRANSPIRATION =        2348341.14     EVAPOTRANSPIRATION =           7999.79
           STREAMFLOW =        1666020.83             STREAMFLOW =          12239.84
     GW BOUNDARY FLOW =           5516.96       GW BOUNDARY FLOW =             35.33

   INFLOWS - OUTFLOWS =        2200343.61     INFLOWS - OUTFLOWS =        1222913.11
             --------                                   --------

 TOTAL STORAGE CHANGE =        2192185.49         STORAGE CHANGE =        1220968.31
       --------------                             --------------
         LAND SURFACE =        2505904.36           LAND SURFACE =        1046748.89
            SOIL ZONE =        2195778.48              SOIL ZONE =         186873.32
     UNSATURATED ZONE =       -3166586.52       UNSATURATED ZONE =         -10258.83
       SATURATED ZONE =         657088.32         SATURATED ZONE =          -2395.08

 OVERALL BUDGET ERROR =           8158.12           BUDGET ERROR =           1944.79


  PERCENT DISCREPANCY =              0.13    PERCENT DISCREPANCY =              0.16



1
 SUMMARY VOLUMETRIC BUDGET FOR GSFLOW 
 DATE: 03 10 1991              CUMULATIVE TIME STEP:      10
 MODFLOW STRESS PERIOD      7     CURRENT TIME STEP:     161     ITERATIONS:       6

 -----------------------------------------------------------------------------------

   CUMULATIVE VOLUMES               L**3   RATES FOR THIS TIME STEP           L**3/T
   ------------------                      ------------------------

                                     IN                                         IN
                                     --                                         --
        PRECIPITATION =        8746030.42          PRECIPITATION =          32888.55
           STREAMFLOW =                               STREAMFLOW =                  
     GW BOUNDARY FLOW =             38.94       GW BOUNDARY FLOW =              0.89


                                    OUT                                        OUT
                                    ---                                        ---
   EVAPOTRANSPIRATION =        2407457.20     EVAPOTRANSPIRATION =           8408.70
           STREAMFLOW =        1806129.80             STREAMFLOW =          18902.91
     GW BOUNDARY FLOW =           5765.14       GW BOUNDARY FLOW =             35.38

   INFLOWS - OUTFLOWS =        4526717.23     INFLOWS - OUTFLOWS =           5542.45
             --------                                   --------

 TOTAL STORAGE CHANGE =        4508832.29         STORAGE CHANGE =           5319.36
       --------------                             --------------
         LAND SURFACE =        3082070.49           LAND SURFACE =            535.10
            SOIL ZONE =        3984983.63              SOIL ZONE =          11178.50
     UNSATURATED ZONE =       -3207637.38       UNSATURATED ZONE =          -5013.54
       SATURATED ZONE =         649414.50         SATURATED ZONE =          -1380.73

 OVERALL BUDGET ERROR =          17884.94           BUDGET ERROR =            223.10


  PERCENT DISCREPANCY =              0.20    PERCENT DISCREPANCY =              0.68



1
 SUMMARY VOLUMETRIC BUDGET FOR GSFLOW 
 DATE: 03 17 1991              CUMULATIVE TIME STEP:      17
 MODFLOW STRESS PERIOD      7     CURRENT TIME STEP:     168     ITERATIONS:       5

 -----------------------------------------------------------------------------------

   CUMULATIVE VOLUMES               L**3   RATES FOR THIS TIME STEP           L**3/T
   ------------------                      ------------------------

                                     IN                                         IN
                                     --                                         --
        PRECIPITATION =        9897129.71          PRECIPITATION =         157865.04
           STREAMFLOW =                               STREAMFLOW =                  
     GW BOUNDARY FLOW =             45.39       GW BOUNDARY FLOW =              0.95


                                    OUT                                        OUT
                                    ---                                        ---
   EVAPOTRANSPIRATION =        2433134.12     EVAPOTRANSPIRATION =           7593.21
           STREAMFLOW =        1929627.41             STREAMFLOW =          17115.45
     GW BOUNDARY FLOW =           6012.01       GW BOUNDARY FLOW =             35.19

   INFLOWS - OUTFLOWS =        5528401.58     INFLOWS - OUTFLOWS =         133122.14
             --------                                   --------

 TOTAL STORAGE CHANGE =        5510647.19         STORAGE CHANGE =         133141.29
       --------------                             --------------
         LAND SURFACE =        4232943.09           LAND SURFACE =         157846.09
            SOIL ZONE =        3886477.44              SOIL ZONE =         -17044.32
     UNSATURATED ZONE =       -3244619.36       UNSATURATED ZONE =          -5421.06
       SATURATED ZONE =         635844.76         SATURATED ZONE =          -2239.44

 OVERALL BUDGET ERROR =          17754.39           BUDGET ERROR =            -19.15


  PERCENT DISCREPANCY =              0.18    PERCENT DISCREPANCY =             -0.01



1
 SUMMARY VOLUMETRIC BUDGET FOR GSFLOW 
 DATE: 03 24 1991              CUMULATIVE TIME STEP:      24
 MODFLOW STRESS PERIOD      7     CURRENT TIME STEP:     175     ITERATIONS:       5

 -----------------------------------------------------------------------------------

   CUMULATIVE VOLUMES               L**3   RATES FOR THIS TIME STEP           L**3/T
   ------------------                      ------------------------

                                     IN                                         IN
                                     --                                         --
        PRECIPITATION =        1.1673D+07          PRECIPITATION =        1230031.83
           STREAMFLOW =                               STREAMFLOW =                  
     GW BOUNDARY FLOW =             52.25       GW BOUNDARY FLOW =              1.00


                                    OUT                                        OUT
                                    ---                                        ---
   EVAPOTRANSPIRATION =        2468715.68     EVAPOTRANSPIRATION =           4147.04
           STREAMFLOW =        2045691.15             STREAMFLOW =          16281.85
     GW BOUNDARY FLOW =           6257.68       GW BOUNDARY FLOW =             35.03

   INFLOWS - OUTFLOWS =        7152499.24     INFLOWS - OUTFLOWS =        1209568.92
             --------                                   --------

 TOTAL STORAGE CHANGE =        7134789.63         STORAGE CHANGE =        1209589.23
       --------------                             --------------
         LAND SURFACE =        6001644.06           LAND SURFACE =        1230031.83
            SOIL ZONE =        3799515.96              SOIL ZONE =         -11837.40
     UNSATURATED ZONE =       -3284554.71       UNSATURATED ZONE =          -5893.56
       SATURATED ZONE =         618182.86         SATURATED ZONE =          -2711.67

 OVERALL BUDGET ERROR =          17709.62           BUDGET ERROR =            -20.31


  PERCENT DISCREPANCY =              0.15    PERCENT DISCREPANCY =             -0.00



1
 SUMMARY VOLUMETRIC BUDGET FOR GSFLOW 
 DATE: 03 31 1991              CUMULATIVE TIME STEP:      31
 MODFLOW STRESS PERIOD      7     CURRENT TIME STEP:     182     ITERATIONS:       6

 -----------------------------------------------------------------------------------

   CUMULATIVE VOLUMES               L**3   RATES FOR THIS TIME STEP           L**3/T
   ------------------                      ------------------------

                                     IN                                         IN
                                     --                                         --
        PRECIPITATION =        1.2495D+07          PRECIPITATION =                  
           STREAMFLOW =                               STREAMFLOW =                  
     GW BOUNDARY FLOW =             59.51       GW BOUNDARY FLOW =              1.06


                                    OUT                                        OUT
                                    ---                                        ---
   EVAPOTRANSPIRATION =        2577005.90     EVAPOTRANSPIRATION =          44705.18
           STREAMFLOW =        2161091.01             STREAMFLOW =          18435.44
     GW BOUNDARY FLOW =           6502.36       GW BOUNDARY FLOW =             34.94

   INFLOWS - OUTFLOWS =        7750785.52     INFLOWS - OUTFLOWS =         -63174.51
             --------                                   --------

 TOTAL STORAGE CHANGE =        7731969.67         STORAGE CHANGE =         -63998.47
       --------------                             --------------
         LAND SURFACE =        6627859.43           LAND SURFACE =        -109529.99
            SOIL ZONE =        3831419.50              SOIL ZONE =          53455.52
     UNSATURATED ZONE =       -3325055.30       UNSATURATED ZONE =          -5048.13
       SATURATED ZONE =         597744.38         SATURATED ZONE =          -2875.90

 OVERALL BUDGET ERROR =          18815.85           BUDGET ERROR =            823.96


  PERCENT DISCREPANCY =              0.15    PERCENT DISCREPANCY =              1.30



1
 SUMMARY VOLUMETRIC BUDGET FOR GSFLOW 
 DATE: 04 07 1991              CUMULATIVE TIME STEP:       7
 MODFLOW STRESS PERIOD      8     CURRENT TIME STEP:     189     ITERATIONS:       7

 -----------------------------------------------------------------------------------

   CUMULATIVE VOLUMES               L**3   RATES FOR THIS TIME STEP           L**3/T
   ------------------                      ------------------------

                                     IN                                         IN
                                     --                                         --
        PRECIPITATION =        1.3018D+07          PRECIPITATION =                  
           STREAMFLOW =                               STREAMFLOW =                  
     GW BOUNDARY FLOW =             67.13       GW BOUNDARY FLOW =              1.11


                                    OUT                                        OUT
                                    ---                                        ---
   EVAPOTRANSPIRATION =        2864325.15     EVAPOTRANSPIRATION =          13551.18
           STREAMFLOW =        2421108.45             STREAMFLOW =          52500.07
     GW BOUNDARY FLOW =           6748.86       GW BOUNDARY FLOW =             35.45

   INFLOWS - OUTFLOWS =        7725621.40     INFLOWS - OUTFLOWS =         -66085.59
             --------                                   --------

 TOTAL STORAGE CHANGE =        7698902.79         STORAGE CHANGE =         -66416.41
       --------------                             --------------
         LAND SURFACE =        5127084.68           LAND SURFACE =         -59307.30
            SOIL ZONE =        5313953.49              SOIL ZONE =         -11025.12
     UNSATURATED ZONE =       -3322096.46       UNSATURATED ZONE =           6283.91
       SATURATED ZONE =         579959.15         SATURATED ZONE =          -2367.96

 OVERALL BUDGET ERROR =          26718.61           BUDGET ERROR =            330.83


  PERCENT DISCREPANCY =              0.21    PERCENT DISCREPANCY =              0.50



1
 SUMMARY VOLUMETRIC BUDGET FOR GSFLOW 
 DATE: 04 14 1991              CUMULATIVE TIME STEP:      14
 MODFLOW STRESS PERIOD      8     CURRENT TIME STEP:     196     ITERATIONS:       6

 -----------------------------------------------------------------------------------

   CUMULATIVE VOLUMES               L**3   RATES FOR THIS TIME STEP           L**3/T
   ------------------                      ------------------------

                                     IN                                         IN
                                     --                                         --
        PRECIPITATION =        1.3018D+07          PRECIPITATION =                  
           STREAMFLOW =                               STREAMFLOW =                  
     GW BOUNDARY FLOW =             75.08       GW BOUNDARY FLOW =              1.16


                                    OUT                                        OUT
                                    ---                                        ---
   EVAPOTRANSPIRATION =        3034161.10     EVAPOTRANSPIRATION =          38934.01
           STREAMFLOW =        2827029.63             STREAMFLOW =          62325.18
     GW BOUNDARY FLOW =           6996.99       GW BOUNDARY FLOW =             35.46

   INFLOWS - OUTFLOWS =        7149624.09     INFLOWS - OUTFLOWS =        -101293.49
             --------                                   --------

 TOTAL STORAGE CHANGE =        7119989.31         STORAGE CHANGE =        -102064.92
       --------------                             --------------
         LAND SURFACE =        4519797.60           LAND SURFACE =        -171937.20
            SOIL ZONE =        5313407.92              SOIL ZONE =          66069.86
     UNSATURATED ZONE =       -3277582.47       UNSATURATED ZONE =           6137.31
       SATURATED ZONE =         564364.01         SATURATED ZONE =          -2334.93

 OVERALL BUDGET ERROR =          29634.78           BUDGET ERROR =            771.43


  PERCENT DISCREPANCY =              0.23    PERCENT DISCREPANCY =              0.76



1
 SUMMARY VOLUMETRIC BUDGET FOR GSFLOW 
 DATE: 04 21 1991              CUMULATIVE TIME STEP:      21
 MODFLOW STRESS PERIOD      8     CURRENT TIME STEP:     203     ITERATIONS:       7

 -----------------------------------------------------------------------------------

   CUMULATIVE VOLUMES               L**3   RATES FOR THIS TIME STEP           L**3/T
   ------------------                      ------------------------

                                     IN                                         IN
                                     --                                         --
        PRECIPITATION =        1.3034D+07          PRECIPITATION =                  
           STREAMFLOW =                               STREAMFLOW =                  
     GW BOUNDARY FLOW =             83.34       GW BOUNDARY FLOW =              1.20


                                    OUT                                        OUT
                                    ---                                        ---
   EVAPOTRANSPIRATION =        3265838.66     EVAPOTRANSPIRATION =          43439.84
           STREAMFLOW =        3314246.36             STREAMFLOW =          81717.16
     GW BOUNDARY FLOW =           7245.44       GW BOUNDARY FLOW =             35.61

   INFLOWS - OUTFLOWS =        6446814.97     INFLOWS - OUTFLOWS =        -125191.41
             --------                                   --------

 TOTAL STORAGE CHANGE =        6413066.15         STORAGE CHANGE =        -125833.78
       --------------                             --------------
         LAND SURFACE =        3417717.42           LAND SURFACE =        -214591.82
            SOIL ZONE =        5674589.21              SOIL ZONE =          81957.07
     UNSATURATED ZONE =       -3228046.75       UNSATURATED ZONE =           8892.31
       SATURATED ZONE =         548803.68         SATURATED ZONE =          -2091.41

 OVERALL BUDGET ERROR =          33748.82           BUDGET ERROR =            642.37


  PERCENT DISCREPANCY =              0.26    PERCENT DISCREPANCY =              0.51



1
 SUMMARY VOLUMETRIC BUDGET FOR GSFLOW 
 DATE: 04 28 1991              CUMULATIVE TIME STEP:      28
 MODFLOW STRESS PERIOD      8     CURRENT TIME STEP:     210     ITERATIONS:       6

 -----------------------------------------------------------------------------------

   CUMULATIVE VOLUMES               L**3   RATES FOR THIS TIME STEP           L**3/T
   ------------------                      ------------------------

                                     IN                                         IN
                                     --                                         --
        PRECIPITATION =        1.3303D+07          PRECIPITATION =                  
           STREAMFLOW =                               STREAMFLOW =                  
     GW BOUNDARY FLOW =             91.87       GW BOUNDARY FLOW =              1.24


                                    OUT                                        OUT
                                    ---                                        ---
   EVAPOTRANSPIRATION =        3512693.47     EVAPOTRANSPIRATION =          55256.88
           STREAMFLOW =        3892436.72             STREAMFLOW =          78824.16
     GW BOUNDARY FLOW =           7494.37       GW BOUNDARY FLOW =             35.47

   INFLOWS - OUTFLOWS =        5890897.82     INFLOWS - OUTFLOWS =        -134115.27
             --------                                   --------

 TOTAL STORAGE CHANGE =        5854591.97         STORAGE CHANGE =        -134321.53
       --------------                             --------------
         LAND SURFACE =        2828492.52           LAND SURFACE =        -115203.82
            SOIL ZONE =        5655093.66              SOIL ZONE =         -25493.74
     UNSATURATED ZONE =       -3164194.60       UNSATURATED ZONE =           8335.66
       SATURATED ZONE =         535197.41         SATURATED ZONE =          -1959.69

 OVERALL BUDGET ERROR =          36305.85           BUDGET ERROR =            206.26


  PERCENT DISCREPANCY =              0.27    PERCENT DISCREPANCY =              0.15



1
 SUMMARY VOLUMETRIC BUDGET FOR GSFLOW 
 DATE: 05 05 1991              CUMULATIVE TIME STEP:       5
 MODFLOW STRESS PERIOD      9     CURRENT TIME STEP:     217     ITERATIONS:      10

 -----------------------------------------------------------------------------------

   CUMULATIVE VOLUMES               L**3   RATES FOR THIS TIME STEP           L**3/T
   ------------------                      ------------------------

                                     IN                                         IN
                                     --                                         --
        PRECIPITATION =        1.3510D+07          PRECIPITATION =                  
           STREAMFLOW =                               STREAMFLOW =                  
     GW BOUNDARY FLOW =            100.68       GW BOUNDARY FLOW =              1.27


                                    OUT                                        OUT
                                    ---                                        ---
   EVAPOTRANSPIRATION =        3861621.12     EVAPOTRANSPIRATION =          84779.26
           STREAMFLOW =        4409286.95             STREAMFLOW =          75324.83
     GW BOUNDARY FLOW =           7741.67       GW BOUNDARY FLOW =             35.28

   INFLOWS - OUTFLOWS =        5231159.07     INFLOWS - OUTFLOWS =        -160138.09
             --------                                   --------

 TOTAL STORAGE CHANGE =        5193237.79         STORAGE CHANGE =        -160353.93
       --------------                             --------------
         LAND SURFACE =        2164321.68           LAND SURFACE =        -169194.91
            SOIL ZONE =        5616412.43              SOIL ZONE =           2033.42
     UNSATURATED ZONE =       -3110834.43       UNSATURATED ZONE =           6620.02
       SATURATED ZONE =         523334.73         SATURATED ZONE =            187.48

 OVERALL BUDGET ERROR =          37921.28           BUDGET ERROR =            215.84


  PERCENT DISCREPANCY =              0.28    PERCENT DISCREPANCY =              0.13



1
 SUMMARY VOLUMETRIC BUDGET FOR GSFLOW 
 DATE: 05 12 1991              CUMULATIVE TIME STEP:      12
 MODFLOW STRESS PERIOD      9     CURRENT TIME STEP:     224     ITERATIONS:       6

 -----------------------------------------------------------------------------------

   CUMULATIVE VOLUMES               L**3   RATES FOR THIS TIME STEP           L**3/T
   ------------------                      ------------------------

                                     IN                                         IN
                                     --                                         --
        PRECIPITATION =        1.4029D+07          PRECIPITATION =                  
           STREAMFLOW =                               STREAMFLOW =                  
     GW BOUNDARY FLOW =            109.76       GW BOUNDARY FLOW =              1.31


                                    OUT                                        OUT
                                    ---                                        ---
   EVAPOTRANSPIRATION =        4231402.34     EVAPOTRANSPIRATION =          62576.52
           STREAMFLOW =        4919899.68             STREAMFLOW =          75915.37
     GW BOUNDARY FLOW =           7987.67       GW BOUNDARY FLOW =             35.10

   INFLOWS - OUTFLOWS =        4870042.22     INFLOWS - OUTFLOWS =        -138525.68
             --------                                   --------

 TOTAL STORAGE CHANGE =        4830145.08         STORAGE CHANGE =        -138687.75
       --------------                             --------------
         LAND SURFACE =        1719829.12           LAND SURFACE =        -195667.44
            SOIL ZONE =        5655585.54              SOIL ZONE =          51289.77
     UNSATURATED ZONE =       -3055374.53       UNSATURATED ZONE =           7632.74
       SATURATED ZONE =         510101.13         SATURATED ZONE =          -1942.89

 OVERALL BUDGET ERROR =          39897.14           BUDGET ERROR =            162.08


  PERCENT DISCREPANCY =              0.28    PERCENT DISCREPANCY =              0.12



1
 SUMMARY VOLUMETRIC BUDGET FOR GSFLOW 
 DATE: 05 19 1991              CUMULATIVE TIME STEP:      19
 MODFLOW STRESS PERIOD      9     CURRENT TIME STEP:     231     ITERATIONS:       6

 -----------------------------------------------------------------------------------

   CUMULATIVE VOLUMES               L**3   RATES FOR THIS TIME STEP           L**3/T
   ------------------                      ------------------------

                                     IN                                         IN
                                     --                                         --
        PRECIPITATION =        1.4365D+07          PRECIPITATION =                  
           STREAMFLOW =                               STREAMFLOW =                  
     GW BOUNDARY FLOW =            119.10       GW BOUNDARY FLOW =              1.35


                                    OUT                                        OUT
                                    ---                                        ---
   EVAPOTRANSPIRATION =        4631329.31     EVAPOTRANSPIRATION =          17977.42
           STREAMFLOW =        5425834.11             STREAMFLOW =          64843.05
     GW BOUNDARY FLOW =           8232.40       GW BOUNDARY FLOW =             34.79

   INFLOWS - OUTFLOWS =        4300101.59     INFLOWS - OUTFLOWS =         -82853.90
             --------                                   --------

 TOTAL STORAGE CHANGE =        4259278.71         STORAGE CHANGE =         -82849.89
       --------------                             --------------
         LAND SURFACE =        1168636.63           LAND SURFACE =         -21196.61
            SOIL ZONE =        5593735.58              SOIL ZONE =         -66430.36
     UNSATURATED ZONE =       -3001106.08       UNSATURATED ZONE =           6747.02
       SATURATED ZONE =         498008.33         SATURATED ZONE =          -1970.00

 OVERALL BUDGET ERROR =          40822.88           BUDGET ERROR =             -4.02


  PERCENT DISCREPANCY =              0.28    PERCENT DISCREPANCY =             -0.00



1
 SUMMARY VOLUMETRIC BUDGET FOR GSFLOW 
 DATE: 05 26 1991              CUMULATIVE TIME STEP:      26
 MODFLOW STRESS PERIOD      9     CURRENT TIME STEP:     238     ITERATIONS:       6

 -----------------------------------------------------------------------------------

   CUMULATIVE VOLUMES               L**3   RATES FOR THIS TIME STEP           L**3/T
   ------------------                      ------------------------

                                     IN                                         IN
                                     --                                         --
        PRECIPITATION =        1.4426D+07          PRECIPITATION =                  
           STREAMFLOW =                               STREAMFLOW =                  
     GW BOUNDARY FLOW =            128.72       GW BOUNDARY FLOW =              1.39


                                    OUT                                        OUT
                                    ---                                        ---
   EVAPOTRANSPIRATION =        5278373.73     EVAPOTRANSPIRATION =          71055.80
           STREAMFLOW =        5839783.79             STREAMFLOW =          47783.97
     GW BOUNDARY FLOW =           8474.66       GW BOUNDARY FLOW =             34.37

   INFLOWS - OUTFLOWS =        3299994.15     INFLOWS - OUTFLOWS =        -118872.74
             --------                                   --------

 TOTAL STORAGE CHANGE =        3259038.40         STORAGE CHANGE =        -118868.55
       --------------                             --------------
         LAND SURFACE =         620424.11           LAND SURFACE =         -40812.89
            SOIL ZONE =        5117152.25              SOIL ZONE =         -79248.06
     UNSATURATED ZONE =       -2961727.70       UNSATURATED ZONE =           3517.84
       SATURATED ZONE =         483185.05         SATURATED ZONE =          -2325.51

 OVERALL BUDGET ERROR =          40955.75           BUDGET ERROR =             -4.19


  PERCENT DISCREPANCY =              0.28    PERCENT DISCREPANCY =             -0.00



1
 SUMMARY VOLUMETRIC BUDGET FOR GSFLOW 
 DATE: 06 02 1991              CUMULATIVE TIME STEP:       2
 MODFLOW STRESS PERIOD     10     CURRENT TIME STEP:     245     ITERATIONS:       6

 -----------------------------------------------------------------------------------

   CUMULATIVE VOLUMES               L**3   RATES FOR THIS TIME STEP           L**3/T
   ------------------                      ------------------------

                                     IN                                         IN
                                     --                                         --
        PRECIPITATION =        1.4671D+07          PRECIPITATION =                  
           STREAMFLOW =                               STREAMFLOW =                  
     GW BOUNDARY FLOW =            138.61       GW BOUNDARY FLOW =              1.43


                                    OUT                                        OUT
                                    ---                                        ---
   EVAPOTRANSPIRATION =        5823054.79     EVAPOTRANSPIRATION =         119334.24
           STREAMFLOW =        6145344.49             STREAMFLOW =          40415.05
     GW BOUNDARY FLOW =           8714.10       GW BOUNDARY FLOW =             34.09

   INFLOWS - OUTFLOWS =        2694000.03     INFLOWS - OUTFLOWS =        -159781.94
             --------                                   --------

 TOTAL STORAGE CHANGE =        2652537.56         STORAGE CHANGE =        -159776.59
       --------------                             --------------
         LAND SURFACE =         358942.21           LAND SURFACE =         -46420.51
            SOIL ZONE =        4774687.95              SOIL ZONE =        -112238.26
     UNSATURATED ZONE =       -2947310.29       UNSATURATED ZONE =           1411.94
       SATURATED ZONE =         466212.54         SATURATED ZONE =          -2529.83

 OVERALL BUDGET ERROR =          41462.47           BUDGET ERROR =             -5.36


  PERCENT DISCREPANCY =              0.28    PERCENT DISCREPANCY =             -0.00



1
 SUMMARY VOLUMETRIC BUDGET FOR GSFLOW 
 DATE: 06 09 1991              CUMULATIVE TIME STEP:       9
 MODFLOW STRESS PERIOD     10     CURRENT TIME STEP:     252     ITERATIONS:       6

 -----------------------------------------------------------------------------------

   CUMULATIVE VOLUMES               L**3   RATES FOR THIS TIME STEP           L**3/T
   ------------------                      ------------------------

                                     IN                                         IN
                                     --                                         --
        PRECIPITATION =        1.4671D+07          PRECIPITATION =                  
           STREAMFLOW =                               STREAMFLOW =                  
     GW BOUNDARY FLOW =            148.80       GW BOUNDARY FLOW =              1.47


                                    OUT                                        OUT
                                    ---                                        ---
   EVAPOTRANSPIRATION =        6539054.21     EVAPOTRANSPIRATION =         166447.12
           STREAMFLOW =        6373761.46             STREAMFLOW =          27765.85
     GW BOUNDARY FLOW =           8951.12       GW BOUNDARY FLOW =             33.70

   INFLOWS - OUTFLOWS =        1749356.81     INFLOWS - OUTFLOWS =        -194245.19
             --------                                   --------

 TOTAL STORAGE CHANGE =        1707943.51         STORAGE CHANGE =        -194236.91
       --------------                             --------------
         LAND SURFACE =         151647.51           LAND SURFACE =         -33724.69
            SOIL ZONE =        4062499.26              SOIL ZONE =        -155246.67
     UNSATURATED ZONE =       -2951827.64       UNSATURATED ZONE =          -2015.03
       SATURATED ZONE =         445618.78         SATURATED ZONE =          -3250.59

 OVERALL BUDGET ERROR =          41413.30           BUDGET ERROR =             -8.28


  PERCENT DISCREPANCY =              0.28    PERCENT DISCREPANCY =             -0.00



1
 SUMMARY VOLUMETRIC BUDGET FOR GSFLOW 
 DATE: 06 16 1991              CUMULATIVE TIME STEP:      16
 MODFLOW STRESS PERIOD     10     CURRENT TIME STEP:     259     ITERATIONS:       6

 -----------------------------------------------------------------------------------

   CUMULATIVE VOLUMES               L**3   RATES FOR THIS TIME STEP           L**3/T
   ------------------                      ------------------------

                                     IN                                         IN
                                     --                                         --
        PRECIPITATION =        1.4671D+07          PRECIPITATION =                  
           STREAMFLOW =                               STREAMFLOW =                  
     GW BOUNDARY FLOW =            159.28       GW BOUNDARY FLOW =              1.52


                                    OUT                                        OUT
                                    ---                                        ---
   EVAPOTRANSPIRATION =        7498299.71     EVAPOTRANSPIRATION =         108585.29
           STREAMFLOW =        6519110.73             STREAMFLOW =          17596.23
     GW BOUNDARY FLOW =           9184.26       GW BOUNDARY FLOW =             33.17

   INFLOWS - OUTFLOWS =         644539.38     INFLOWS - OUTFLOWS =        -126213.18
             --------                                   --------

 TOTAL STORAGE CHANGE =         603200.09         STORAGE CHANGE =        -126201.45
       --------------                             --------------
         LAND SURFACE =          42141.08           LAND SURFACE =          -7293.27
            SOIL ZONE =        3137211.19              SOIL ZONE =        -104903.01
     UNSATURATED ZONE =       -2993895.76       UNSATURATED ZONE =          -9333.81
       SATURATED ZONE =         417737.53         SATURATED ZONE =          -4671.42

 OVERALL BUDGET ERROR =          41339.29           BUDGET ERROR =            -11.73


  PERCENT DISCREPANCY =              0.28    PERCENT DISCREPANCY =             -0.01



1
 SUMMARY VOLUMETRIC BUDGET FOR GSFLOW 
 DATE: 06 23 1991              CUMULATIVE TIME STEP:      23
 MODFLOW STRESS PERIOD     10     CURRENT TIME STEP:     266     ITERATIONS:       7

 -----------------------------------------------------------------------------------

   CUMULATIVE VOLUMES               L**3   RATES FOR THIS TIME STEP           L**3/T
   ------------------                      ------------------------

                                     IN                                         IN
                                     --                                         --
        PRECIPITATION =        1.4671D+07          PRECIPITATION =                  
           STREAMFLOW =                               STREAMFLOW =                  
     GW BOUNDARY FLOW =            170.06       GW BOUNDARY FLOW =              1.56


                                    OUT                                        OUT
                                    ---                                        ---
   EVAPOTRANSPIRATION =        7979580.13     EVAPOTRANSPIRATION =          34652.47
           STREAMFLOW =        6628632.08             STREAMFLOW =          15170.81
     GW BOUNDARY FLOW =           9415.64       GW BOUNDARY FLOW =             33.02

   INFLOWS - OUTFLOWS =          53517.01     INFLOWS - OUTFLOWS =         -49854.73
             --------                                   --------

 TOTAL STORAGE CHANGE =          13345.97         STORAGE CHANGE =         -49555.25
       --------------                             --------------
         LAND SURFACE =          16911.50           LAND SURFACE =          -1658.21
            SOIL ZONE =        2680485.34              SOIL ZONE =         -33956.35
     UNSATURATED ZONE =       -3064297.61       UNSATURATED ZONE =          -8464.95
       SATURATED ZONE =         380240.24         SATURATED ZONE =          -5475.81

 OVERALL BUDGET ERROR =          40171.04           BUDGET ERROR =           -299.48


  PERCENT DISCREPANCY =              0.27    PERCENT DISCREPANCY =             -0.60



1
 SUMMARY VOLUMETRIC BUDGET FOR GSFLOW 
 DATE: 06 30 1991              CUMULATIVE TIME STEP:      30
 MODFLOW STRESS PERIOD     10     CURRENT TIME STEP:     273     ITERATIONS:       6

 -----------------------------------------------------------------------------------

   CUMULATIVE VOLUMES               L**3   RATES FOR THIS TIME STEP           L**3/T
   ------------------                      ------------------------

                                     IN                                         IN
[...]
                                    ---                                        ---
   EVAPOTRANSPIRATION =        7.3737D+07     EVAPOTRANSPIRATION =          85415.55
           STREAMFLOW =        7.0396D+07             STREAMFLOW =          13510.51
     GW BOUNDARY FLOW =          50993.68       GW BOUNDARY FLOW =             24.42

   INFLOWS - OUTFLOWS =       -1.0671D+07     INFLOWS - OUTFLOWS =         -98947.14
             --------                                   --------

 TOTAL STORAGE CHANGE =       -1.0505D+07         STORAGE CHANGE =         -97245.53
       --------------                             --------------
         LAND SURFACE =         524381.77           LAND SURFACE =         -24592.44
            SOIL ZONE =        2194728.92              SOIL ZONE =         -58693.89
     UNSATURATED ZONE =          70820.93       UNSATURATED ZONE =          -9178.72
       SATURATED ZONE =       -1.3296D+07         SATURATED ZONE =          -4781.02

 OVERALL BUDGET ERROR =        -165327.87           BUDGET ERROR =          -1701.61


  PERCENT DISCREPANCY =             -0.11    PERCENT DISCREPANCY =             -1.73



1
 SUMMARY VOLUMETRIC BUDGET FOR GSFLOW 
 DATE: 09 03 1995              CUMULATIVE TIME STEP:       3
 MODFLOW STRESS PERIOD     61     CURRENT TIME STEP:    1799     ITERATIONS:       6

 -----------------------------------------------------------------------------------

   CUMULATIVE VOLUMES               L**3   RATES FOR THIS TIME STEP           L**3/T
   ------------------                      ------------------------

                                     IN                                         IN
                                     --                                         --
        PRECIPITATION =        1.3351D+08          PRECIPITATION =                  
           STREAMFLOW =                               STREAMFLOW =                  
     GW BOUNDARY FLOW =           5622.61       GW BOUNDARY FLOW =              3.44


                                    OUT                                        OUT
                                    ---                                        ---
   EVAPOTRANSPIRATION =        7.4315D+07     EVAPOTRANSPIRATION =          77403.81
           STREAMFLOW =        7.0479D+07             STREAMFLOW =          10696.25
     GW BOUNDARY FLOW =          51163.78       GW BOUNDARY FLOW =             24.21

   INFLOWS - OUTFLOWS =       -1.1330D+07     INFLOWS - OUTFLOWS =         -88120.83
             --------                                   --------

 TOTAL STORAGE CHANGE =       -1.1160D+07         STORAGE CHANGE =         -88137.86
       --------------                             --------------
         LAND SURFACE =         372015.97           LAND SURFACE =         -19446.39
            SOIL ZONE =        1799562.23              SOIL ZONE =         -52552.47
     UNSATURATED ZONE =           4938.04       UNSATURATED ZONE =          -9592.18
       SATURATED ZONE =       -1.3337D+07         SATURATED ZONE =          -6547.36

 OVERALL BUDGET ERROR =        -170317.53           BUDGET ERROR =             17.03


  PERCENT DISCREPANCY =             -0.12    PERCENT DISCREPANCY =              0.02



1
 SUMMARY VOLUMETRIC BUDGET FOR GSFLOW 
 DATE: 09 10 1995              CUMULATIVE TIME STEP:      10
 MODFLOW STRESS PERIOD     61     CURRENT TIME STEP:    1806     ITERATIONS:       7

 -----------------------------------------------------------------------------------

   CUMULATIVE VOLUMES               L**3   RATES FOR THIS TIME STEP           L**3/T
   ------------------                      ------------------------

                                     IN                                         IN
                                     --                                         --
        PRECIPITATION =        1.3351D+08          PRECIPITATION =                  
           STREAMFLOW =                               STREAMFLOW =                  
     GW BOUNDARY FLOW =           5647.09       GW BOUNDARY FLOW =              3.54


                                    OUT                                        OUT
                                    ---                                        ---
   EVAPOTRANSPIRATION =        7.4750D+07     EVAPOTRANSPIRATION =          58285.31
           STREAMFLOW =        7.0550D+07             STREAMFLOW =           9562.87
     GW BOUNDARY FLOW =          51333.21       GW BOUNDARY FLOW =             24.18

   INFLOWS - OUTFLOWS =       -1.1837D+07     INFLOWS - OUTFLOWS =         -67868.82
             --------                                   --------

 TOTAL STORAGE CHANGE =       -1.1667D+07         STORAGE CHANGE =         -67876.20
       --------------                             --------------
         LAND SURFACE =         271470.12           LAND SURFACE =         -12572.77
            SOIL ZONE =        1500224.47              SOIL ZONE =         -39856.50
     UNSATURATED ZONE =         -58337.11       UNSATURATED ZONE =          -8857.84
       SATURATED ZONE =       -1.3381D+07         SATURATED ZONE =          -6589.64

 OVERALL BUDGET ERROR =        -170274.77           BUDGET ERROR =              7.38


  PERCENT DISCREPANCY =             -0.12    PERCENT DISCREPANCY =              0.01



1
 SUMMARY VOLUMETRIC BUDGET FOR GSFLOW 
 DATE: 09 17 1995              CUMULATIVE TIME STEP:      17
 MODFLOW STRESS PERIOD     61     CURRENT TIME STEP:    1813     ITERATIONS:       7

 -----------------------------------------------------------------------------------

   CUMULATIVE VOLUMES               L**3   RATES FOR THIS TIME STEP           L**3/T
   ------------------                      ------------------------

                                     IN                                         IN
                                     --                                         --
        PRECIPITATION =        1.3351D+08          PRECIPITATION =                  
           STREAMFLOW =                               STREAMFLOW =                  
     GW BOUNDARY FLOW =           5672.24       GW BOUNDARY FLOW =              3.63


                                    OUT                                        OUT
                                    ---                                        ---
   EVAPOTRANSPIRATION =        7.5226D+07     EVAPOTRANSPIRATION =          54717.05
           STREAMFLOW =        7.0606D+07             STREAMFLOW =           7934.24
     GW BOUNDARY FLOW =          51501.64       GW BOUNDARY FLOW =             24.07

   INFLOWS - OUTFLOWS =       -1.2369D+07     INFLOWS - OUTFLOWS =         -62671.73
             --------                                   --------

 TOTAL STORAGE CHANGE =       -1.2199D+07         STORAGE CHANGE =         -62677.76
       --------------                             --------------
         LAND SURFACE =         180685.70           LAND SURFACE =          -9600.58
            SOIL ZONE =        1185528.00              SOIL ZONE =         -36066.23
     UNSATURATED ZONE =        -124617.05       UNSATURATED ZONE =          -9278.43
       SATURATED ZONE =       -1.3441D+07         SATURATED ZONE =          -7733.07

 OVERALL BUDGET ERROR =        -170224.73           BUDGET ERROR =              6.03


  PERCENT DISCREPANCY =             -0.12    PERCENT DISCREPANCY =              0.01



1
 SUMMARY VOLUMETRIC BUDGET FOR GSFLOW 
 DATE: 09 24 1995              CUMULATIVE TIME STEP:      24
 MODFLOW STRESS PERIOD     61     CURRENT TIME STEP:    1820     ITERATIONS:       7

 -----------------------------------------------------------------------------------

   CUMULATIVE VOLUMES               L**3   RATES FOR THIS TIME STEP           L**3/T
   ------------------                      ------------------------

                                     IN                                         IN
                                     --                                         --
        PRECIPITATION =        1.3351D+08          PRECIPITATION =                  
           STREAMFLOW =                               STREAMFLOW =                  
     GW BOUNDARY FLOW =           5698.02       GW BOUNDARY FLOW =              3.72


                                    OUT                                        OUT
                                    ---                                        ---
   EVAPOTRANSPIRATION =        7.5565D+07     EVAPOTRANSPIRATION =          35011.49
           STREAMFLOW =        7.0660D+07             STREAMFLOW =           8138.25
     GW BOUNDARY FLOW =          51670.02       GW BOUNDARY FLOW =             24.09

   INFLOWS - OUTFLOWS =       -1.2763D+07     INFLOWS - OUTFLOWS =         -43170.11
             --------                                   --------

 TOTAL STORAGE CHANGE =       -1.2593D+07         STORAGE CHANGE =         -43174.16
       --------------                             --------------
         LAND SURFACE =         125692.08           LAND SURFACE =          -5511.04
            SOIL ZONE =         963180.24              SOIL ZONE =         -22679.94
     UNSATURATED ZONE =        -185703.25       UNSATURATED ZONE =          -8232.90
       SATURATED ZONE =       -1.3496D+07         SATURATED ZONE =          -6750.82

 OVERALL BUDGET ERROR =        -170193.01           BUDGET ERROR =              4.05


  PERCENT DISCREPANCY =             -0.12    PERCENT DISCREPANCY =              0.01



1
 SUMMARY VOLUMETRIC BUDGET FOR GSFLOW 
 DATE: 10 01 1995              CUMULATIVE TIME STEP:       1
 MODFLOW STRESS PERIOD     62     CURRENT TIME STEP:    1827     ITERATIONS:       6

 -----------------------------------------------------------------------------------

   CUMULATIVE VOLUMES               L**3   RATES FOR THIS TIME STEP           L**3/T
   ------------------                      ------------------------

                                     IN                                         IN
                                     --                                         --
        PRECIPITATION =        1.3351D+08          PRECIPITATION =                  
           STREAMFLOW =                               STREAMFLOW =                  
     GW BOUNDARY FLOW =           5724.40       GW BOUNDARY FLOW =              3.80


                                    OUT                                        OUT
                                    ---                                        ---
   EVAPOTRANSPIRATION =        7.5704D+07     EVAPOTRANSPIRATION =          20820.55
           STREAMFLOW =        7.0722D+07             STREAMFLOW =           8800.00
     GW BOUNDARY FLOW =          51839.17       GW BOUNDARY FLOW =             24.17

   INFLOWS - OUTFLOWS =       -1.2964D+07     INFLOWS - OUTFLOWS =         -29640.91
             --------                                   --------

 TOTAL STORAGE CHANGE =       -1.2794D+07         STORAGE CHANGE =         -29646.70
       --------------                             --------------
         LAND SURFACE =         102504.93           LAND SURFACE =          -2862.19
            SOIL ZONE =         875700.69              SOIL ZONE =         -13536.65
     UNSATURATED ZONE =        -239029.19       UNSATURATED ZONE =          -7513.37
       SATURATED ZONE =       -1.3533D+07         SATURATED ZONE =          -5735.04

 OVERALL BUDGET ERROR =        -170158.96           BUDGET ERROR =              5.79


  PERCENT DISCREPANCY =             -0.12    PERCENT DISCREPANCY =              0.02



1
 SUMMARY VOLUMETRIC BUDGET FOR GSFLOW 
 DATE: 10 08 1995              CUMULATIVE TIME STEP:       8
 MODFLOW STRESS PERIOD     62     CURRENT TIME STEP:    1834     ITERATIONS:       6

 -----------------------------------------------------------------------------------

   CUMULATIVE VOLUMES               L**3   RATES FOR THIS TIME STEP           L**3/T
   ------------------                      ------------------------

                                     IN                                         IN
                                     --                                         --
        PRECIPITATION =        1.3351D+08          PRECIPITATION =                  
           STREAMFLOW =                               STREAMFLOW =                  
     GW BOUNDARY FLOW =           5751.34       GW BOUNDARY FLOW =              3.88


                                    OUT                                        OUT
                                    ---                                        ---
   EVAPOTRANSPIRATION =        7.5865D+07     EVAPOTRANSPIRATION =          20202.54
           STREAMFLOW =        7.0782D+07             STREAMFLOW =           8485.65
     GW BOUNDARY FLOW =          52008.21       GW BOUNDARY FLOW =             24.16

   INFLOWS - OUTFLOWS =       -1.3185D+07     INFLOWS - OUTFLOWS =         -28708.47
             --------                                   --------

 TOTAL STORAGE CHANGE =       -1.3015D+07         STORAGE CHANGE =         -28713.22
       --------------                             --------------
         LAND SURFACE =          81951.52           LAND SURFACE =          -2502.54
            SOIL ZONE =         772372.17              SOIL ZONE =         -12630.91
     UNSATURATED ZONE =        -291158.59       UNSATURATED ZONE =          -7289.69
       SATURATED ZONE =       -1.3578D+07         SATURATED ZONE =          -6290.61

 OVERALL BUDGET ERROR =        -170138.02           BUDGET ERROR =              4.74


  PERCENT DISCREPANCY =             -0.12    PERCENT DISCREPANCY =              0.02



1
 SUMMARY VOLUMETRIC BUDGET FOR GSFLOW 
 DATE: 10 15 1995              CUMULATIVE TIME STEP:      15
 MODFLOW STRESS PERIOD     62     CURRENT TIME STEP:    1841     ITERATIONS:       6

 -----------------------------------------------------------------------------------

   CUMULATIVE VOLUMES               L**3   RATES FOR THIS TIME STEP           L**3/T
   ------------------                      ------------------------

                                     IN                                         IN
                                     --                                         --
        PRECIPITATION =        1.3351D+08          PRECIPITATION =                  
           STREAMFLOW =                               STREAMFLOW =                  
     GW BOUNDARY FLOW =           5778.79       GW BOUNDARY FLOW =              3.95


                                    OUT                                        OUT
                                    ---                                        ---
   EVAPOTRANSPIRATION =        7.6024D+07     EVAPOTRANSPIRATION =          25373.86
           STREAMFLOW =        7.0839D+07             STREAMFLOW =           7855.27
     GW BOUNDARY FLOW =          52177.16       GW BOUNDARY FLOW =             24.12

   INFLOWS - OUTFLOWS =       -1.3400D+07     INFLOWS - OUTFLOWS =         -33249.30
             --------                                   --------

 TOTAL STORAGE CHANGE =       -1.3230D+07         STORAGE CHANGE =         -33252.84
       --------------                             --------------
         LAND SURFACE =          63226.18           LAND SURFACE =          -2687.15
            SOIL ZONE =         675526.11              SOIL ZONE =         -15345.26
     UNSATURATED ZONE =        -343175.33       UNSATURATED ZONE =          -7661.91
       SATURATED ZONE =       -1.3626D+07         SATURATED ZONE =          -7559.05

 OVERALL BUDGET ERROR =        -170126.02           BUDGET ERROR =              3.54


  PERCENT DISCREPANCY =             -0.12    PERCENT DISCREPANCY =              0.01



1
 SUMMARY VOLUMETRIC BUDGET FOR GSFLOW 
 DATE: 10 22 1995              CUMULATIVE TIME STEP:      22
 MODFLOW STRESS PERIOD     62     CURRENT TIME STEP:    1848     ITERATIONS:       7

 -----------------------------------------------------------------------------------

   CUMULATIVE VOLUMES               L**3   RATES FOR THIS TIME STEP           L**3/T
   ------------------                      ------------------------

                                     IN                                         IN
                                     --                                         --
        PRECIPITATION =        1.3351D+08          PRECIPITATION =                  
           STREAMFLOW =                               STREAMFLOW =                  
     GW BOUNDARY FLOW =           5806.71       GW BOUNDARY FLOW =              4.02


                                    OUT                                        OUT
                                    ---                                        ---
   EVAPOTRANSPIRATION =        7.6167D+07     EVAPOTRANSPIRATION =           5923.70
           STREAMFLOW =        7.0895D+07             STREAMFLOW =           9023.58
     GW BOUNDARY FLOW =          52346.09       GW BOUNDARY FLOW =             24.22

   INFLOWS - OUTFLOWS =       -1.3599D+07     INFLOWS - OUTFLOWS =         -14967.49
             --------                                   --------

 TOTAL STORAGE CHANGE =       -1.3429D+07         STORAGE CHANGE =         -14968.90
       --------------                             --------------
         LAND SURFACE =          49141.37           LAND SURFACE =           -667.02
            SOIL ZONE =         590946.85              SOIL ZONE =          -3523.77
     UNSATURATED ZONE =        -393350.03       UNSATURATED ZONE =          -6325.46
       SATURATED ZONE =       -1.3676D+07         SATURATED ZONE =          -4453.19

 OVERALL BUDGET ERROR =        -170112.04           BUDGET ERROR =              1.41


  PERCENT DISCREPANCY =             -0.12    PERCENT DISCREPANCY =              0.01



1
 SUMMARY VOLUMETRIC BUDGET FOR GSFLOW 
 DATE: 10 29 1995              CUMULATIVE TIME STEP:      29
 MODFLOW STRESS PERIOD     62     CURRENT TIME STEP:    1855     ITERATIONS:       5

 -----------------------------------------------------------------------------------

   CUMULATIVE VOLUMES               L**3   RATES FOR THIS TIME STEP           L**3/T
   ------------------                      ------------------------

                                     IN                                         IN
                                     --                                         --
        PRECIPITATION =        1.3351D+08          PRECIPITATION =                  
           STREAMFLOW =                               STREAMFLOW =                  
     GW BOUNDARY FLOW =           5835.06       GW BOUNDARY FLOW =              4.08


                                    OUT                                        OUT
                                    ---                                        ---
   EVAPOTRANSPIRATION =        7.6252D+07     EVAPOTRANSPIRATION =          15014.94
           STREAMFLOW =        7.0954D+07             STREAMFLOW =           8144.11
     GW BOUNDARY FLOW =          52515.41       GW BOUNDARY FLOW =             24.17

   INFLOWS - OUTFLOWS =       -1.3745D+07     INFLOWS - OUTFLOWS =         -23179.14
             --------                                   --------

 TOTAL STORAGE CHANGE =       -1.3575D+07         STORAGE CHANGE =         -23182.74
       --------------                             --------------
         LAND SURFACE =          42922.70           LAND SURFACE =          -1382.99
            SOIL ZONE =         540278.56              SOIL ZONE =          -8354.50
     UNSATURATED ZONE =        -439163.62       UNSATURATED ZONE =          -6546.95
       SATURATED ZONE =       -1.3719D+07         SATURATED ZONE =          -6898.84

 OVERALL BUDGET ERROR =        -170093.46           BUDGET ERROR =              3.60


  PERCENT DISCREPANCY =             -0.12    PERCENT DISCREPANCY =              0.02



