1
 SUMMARY VOLUMETRIC BUDGET FOR GSFLOW 
 DATE: 10 07 1990              CUMULATIVE TIME STEP:       7
 MODFLOW STRESS PERIOD      2     CURRENT TIME STEP:       7     ITERATIONS:       7

 -----------------------------------------------------------------------------------

   CUMULATIVE VOLUMES               L**3   RATES FOR THIS TIME STEP           L**3/T
   ------------------                      ------------------------

                                     IN                                         IN
                                     --                                         --
        PRECIPITATION =                            PRECIPITATION =                  
           STREAMFLOW =                               STREAMFLOW =                  
     GW BOUNDARY FLOW =                         GW BOUNDARY FLOW =                  


                                    OUT                                        OUT
                                    ---                                        ---
   EVAPOTRANSPIRATION =         385029.62     EVAPOTRANSPIRATION =          11801.28
           STREAMFLOW =          45660.69             STREAMFLOW =           8128.64
     GW BOUNDARY FLOW =            252.78       GW BOUNDARY FLOW =             36.30

   INFLOWS - OUTFLOWS =        -430943.08     INFLOWS - OUTFLOWS =         -19966.22
             --------                                   --------

 TOTAL STORAGE CHANGE =        -429364.82         STORAGE CHANGE =         -19938.66
       --------------                             --------------
         LAND SURFACE =                             LAND SURFACE =                  
            SOIL ZONE =         -33378.21              SOIL ZONE =           -943.72
     UNSATURATED ZONE =        -502802.12       UNSATURATED ZONE =         -33592.28
       SATURATED ZONE =         106815.51         SATURATED ZONE =          14597.34

 OVERALL BUDGET ERROR =          -1578.27           BUDGET ERROR =            -27.57


  PERCENT DISCREPANCY =             -0.37    PERCENT DISCREPANCY =             -0.14



1
 SUMMARY VOLUMETRIC BUDGET FOR GSFLOW 
 DATE: 10 14 1990              CUMULATIVE TIME STEP:      14
 MODFLOW STRESS PERIOD      2     CURRENT TIME STEP:      14     ITERATIONS:       6

 -----------------------------------------------------------------------------------

   CUMULATIVE VOLUMES               L**3   RATES FOR THIS TIME STEP           L**3/T
   ------------------                      ------------------------

                                     IN                                         IN
                                     --                                         --
        PRECIPITATION =                            PRECIPITATION =                  
           STREAMFLOW =                               STREAMFLOW =                  
     GW BOUNDARY FLOW =                         GW BOUNDARY FLOW =                  


                                    OUT                                        OUT
                                    ---                                        ---
   EVAPOTRANSPIRATION =         665231.80     EVAPOTRANSPIRATION =          42297.84
           STREAMFLOW =         100373.68             STREAMFLOW =           7413.55
     GW BOUNDARY FLOW =            506.61       GW BOUNDARY FLOW =             36.24

   INFLOWS - OUTFLOWS =        -766112.10     INFLOWS - OUTFLOWS =         -49747.63
             --------                                   --------

 TOTAL STORAGE CHANGE =        -764174.06         STORAGE CHANGE =         -49712.85
       --------------                             --------------
         LAND SURFACE =                             LAND SURFACE =                  
            SOIL ZONE =         -58187.16              SOIL ZONE =          -4381.88
     UNSATURATED ZONE =        -877807.90       UNSATURATED ZONE =         -52081.85
       SATURATED ZONE =         171821.00         SATURATED ZONE =           6750.89

 OVERALL BUDGET ERROR =          -1938.04           BUDGET ERROR =            -34.78


  PERCENT DISCREPANCY =             -0.25    PERCENT DISCREPANCY =             -0.07



1
 SUMMARY VOLUMETRIC BUDGET FOR GSFLOW 
 DATE: 10 21 1990              CUMULATIVE TIME STEP:      21
 MODFLOW STRESS PERIOD      2     CURRENT TIME STEP:      21     ITERATIONS:       6

 -----------------------------------------------------------------------------------

   CUMULATIVE VOLUMES               L**3   RATES FOR THIS TIME STEP           L**3/T
   ------------------                      ------------------------

                                     IN                                         IN
                                     --                                         --
        PRECIPITATION =         188432.87          PRECIPITATION =                  
           STREAMFLOW =                               STREAMFLOW =                  
     GW BOUNDARY FLOW =                         GW BOUNDARY FLOW =                  


                                    OUT                                        OUT
                                    ---                                        ---
   EVAPOTRANSPIRATION =         815237.61     EVAPOTRANSPIRATION =          41484.04
           STREAMFLOW =         163147.36             STREAMFLOW =          10149.67
     GW BOUNDARY FLOW =            760.80       GW BOUNDARY FLOW =             36.37

   INFLOWS - OUTFLOWS =        -790712.90     INFLOWS - OUTFLOWS =         -51670.08
             --------                                   --------

 TOTAL STORAGE CHANGE =        -789927.41         STORAGE CHANGE =         -51664.97
       --------------                             --------------
         LAND SURFACE =          18885.57           LAND SURFACE =         -43558.49
            SOIL ZONE =          47725.00              SOIL ZONE =           2341.29
     UNSATURATED ZONE =       -1091643.54       UNSATURATED ZONE =         -21396.32
       SATURATED ZONE =         235105.56         SATURATED ZONE =          10948.56

 OVERALL BUDGET ERROR =           -785.49           BUDGET ERROR =             -5.11


  PERCENT DISCREPANCY =             -0.08    PERCENT DISCREPANCY =             -0.01



1
 SUMMARY VOLUMETRIC BUDGET FOR GSFLOW 
 DATE: 10 28 1990              CUMULATIVE TIME STEP:      28
 MODFLOW STRESS PERIOD      2     CURRENT TIME STEP:      28     ITERATIONS:       6

 -----------------------------------------------------------------------------------

   CUMULATIVE VOLUMES               L**3   RATES FOR THIS TIME STEP           L**3/T
   ------------------                      ------------------------

                                     IN                                         IN
                                     --                                         --
        PRECIPITATION =         188432.87          PRECIPITATION =                  
           STREAMFLOW =                               STREAMFLOW =                  
     GW BOUNDARY FLOW =                         GW BOUNDARY FLOW =                  


                                    OUT                                        OUT
                                    ---                                        ---
   EVAPOTRANSPIRATION =         942785.45     EVAPOTRANSPIRATION =          11821.21
           STREAMFLOW =         224532.09             STREAMFLOW =           8922.75
     GW BOUNDARY FLOW =           1013.98       GW BOUNDARY FLOW =             36.12

   INFLOWS - OUTFLOWS =        -979898.66     INFLOWS - OUTFLOWS =         -20780.09
             --------                                   --------

 TOTAL STORAGE CHANGE =        -979019.98         STORAGE CHANGE =         -20772.87
       --------------                             --------------
         LAND SURFACE =                             LAND SURFACE =                  
            SOIL ZONE =          19801.73              SOIL ZONE =          -3445.80
     UNSATURATED ZONE =       -1275079.33       UNSATURATED ZONE =         -23214.81
       SATURATED ZONE =         276257.61         SATURATED ZONE =           5887.73

 OVERALL BUDGET ERROR =           -878.68           BUDGET ERROR =             -7.22


  PERCENT DISCREPANCY =             -0.08    PERCENT DISCREPANCY =             -0.03



1
 SUMMARY VOLUMETRIC BUDGET FOR GSFLOW 
 DATE: 11 04 1990              CUMULATIVE TIME STEP:       4
 MODFLOW STRESS PERIOD      3     CURRENT TIME STEP:      35     ITERATIONS:       6

 -----------------------------------------------------------------------------------

   CUMULATIVE VOLUMES               L**3   RATES FOR THIS TIME STEP           L**3/T
   ------------------                      ------------------------

                                     IN                                         IN
                                     --                                         --
        PRECIPITATION =         703113.06          PRECIPITATION =                  
           STREAMFLOW =                               STREAMFLOW =                  
     GW BOUNDARY FLOW =                         GW BOUNDARY FLOW =                  


                                    OUT                                        OUT
                                    ---                                        ---
   EVAPOTRANSPIRATION =        1003113.94     EVAPOTRANSPIRATION =          26062.18
           STREAMFLOW =         295104.49             STREAMFLOW =          10629.66
     GW BOUNDARY FLOW =           1267.02       GW BOUNDARY FLOW =             36.13

   INFLOWS - OUTFLOWS =        -596372.39     INFLOWS - OUTFLOWS =         -36727.97
             --------                                   --------

 TOTAL STORAGE CHANGE =        -600489.97         STORAGE CHANGE =         -37962.60
       --------------                             --------------
         LAND SURFACE =         132159.65           LAND SURFACE =        -160480.33
            SOIL ZONE =         351859.43              SOIL ZONE =         133193.99
     UNSATURATED ZONE =       -1420518.56       UNSATURATED ZONE =         -20037.17
       SATURATED ZONE =         336009.49         SATURATED ZONE =           9360.90

 OVERALL BUDGET ERROR =           4117.59           BUDGET ERROR =           1234.64

  ***WARNING, FLUX RATES OFF > 3%

  PERCENT DISCREPANCY =              0.32    PERCENT DISCREPANCY =              3.31



1
 SUMMARY VOLUMETRIC BUDGET FOR GSFLOW 
 DATE: 11 11 1990              CUMULATIVE TIME STEP:      11
 MODFLOW STRESS PERIOD      3     CURRENT TIME STEP:      42     ITERATIONS:       6

 -----------------------------------------------------------------------------------

   CUMULATIVE VOLUMES               L**3   RATES FOR THIS TIME STEP           L**3/T
   ------------------                      ------------------------

                                     IN                                         IN
                                     --                                         --
        PRECIPITATION =         703113.06          PRECIPITATION =                  
           STREAMFLOW =                               STREAMFLOW =                  
     GW BOUNDARY FLOW =                         GW BOUNDARY FLOW =                  


                                    OUT                                        OUT
                                    ---                                        ---
   EVAPOTRANSPIRATION =        1079195.03     EVAPOTRANSPIRATION =          12186.69
           STREAMFLOW =         366270.22             STREAMFLOW =           9667.66
     GW BOUNDARY FLOW =           1519.13       GW BOUNDARY FLOW =             35.93

   INFLOWS - OUTFLOWS =        -743871.31     INFLOWS - OUTFLOWS =         -21890.28
             --------                                   --------

 TOTAL STORAGE CHANGE =        -748112.10         STORAGE CHANGE =         -21881.59
       --------------                             --------------
         LAND SURFACE =            595.09           LAND SURFACE =          -1416.54
            SOIL ZONE =         425106.63              SOIL ZONE =          -5579.32
     UNSATURATED ZONE =       -1559643.66       UNSATURATED ZONE =         -19831.24
       SATURATED ZONE =         385829.80         SATURATED ZONE =           4945.50

 OVERALL BUDGET ERROR =           4240.79           BUDGET ERROR =             -8.69


  PERCENT DISCREPANCY =              0.29    PERCENT DISCREPANCY =             -0.04



1
 SUMMARY VOLUMETRIC BUDGET FOR GSFLOW 
 DATE: 11 18 1990              CUMULATIVE TIME STEP:      18
 MODFLOW STRESS PERIOD      3     CURRENT TIME STEP:      49     ITERATIONS:       6

 -----------------------------------------------------------------------------------

   CUMULATIVE VOLUMES               L**3   RATES FOR THIS TIME STEP           L**3/T
   ------------------                      ------------------------

                                     IN                                         IN
                                     --                                         --
        PRECIPITATION =         747883.35          PRECIPITATION =                  
           STREAMFLOW =                               STREAMFLOW =                  
     GW BOUNDARY FLOW =                         GW BOUNDARY FLOW =                  


                                    OUT                                        OUT
                                    ---                                        ---
   EVAPOTRANSPIRATION =        1150815.30     EVAPOTRANSPIRATION =           4989.35
           STREAMFLOW =         438035.13             STREAMFLOW =          10678.50
     GW BOUNDARY FLOW =           1770.44       GW BOUNDARY FLOW =             35.88

   INFLOWS - OUTFLOWS =        -842737.52     INFLOWS - OUTFLOWS =         -15703.73
             --------                                   --------

 TOTAL STORAGE CHANGE =        -846974.04         STORAGE CHANGE =         -15708.73
       --------------                             --------------
         LAND SURFACE =           7868.08           LAND SURFACE =          -3691.47
            SOIL ZONE =         407870.75              SOIL ZONE =           -669.06
     UNSATURATED ZONE =       -1692758.83       UNSATURATED ZONE =         -18604.50
       SATURATED ZONE =         430045.91         SATURATED ZONE =           7256.29

 OVERALL BUDGET ERROR =           4236.53           BUDGET ERROR =              5.00


  PERCENT DISCREPANCY =              0.27    PERCENT DISCREPANCY =              0.03



1
 SUMMARY VOLUMETRIC BUDGET FOR GSFLOW 
 DATE: 11 25 1990              CUMULATIVE TIME STEP:      25
 MODFLOW STRESS PERIOD      3     CURRENT TIME STEP:      56     ITERATIONS:       6

 -----------------------------------------------------------------------------------

   CUMULATIVE VOLUMES               L**3   RATES FOR THIS TIME STEP           L**3/T
   ------------------                      ------------------------

                                     IN                                         IN
                                     --                                         --
        PRECIPITATION =        1009043.38          PRECIPITATION =         186542.88
           STREAMFLOW =                               STREAMFLOW =                  
     GW BOUNDARY FLOW =                         GW BOUNDARY FLOW =                  


                                    OUT                                        OUT
                                    ---                                        ---
   EVAPOTRANSPIRATION =        1210369.25     EVAPOTRANSPIRATION =           3750.75
           STREAMFLOW =         514064.29             STREAMFLOW =          10884.19
     GW BOUNDARY FLOW =           2021.38       GW BOUNDARY FLOW =             35.79

   INFLOWS - OUTFLOWS =        -717411.54     INFLOWS - OUTFLOWS =         171872.14
             --------                                   --------

 TOTAL STORAGE CHANGE =        -723749.71         STORAGE CHANGE =         170020.34
       --------------                             --------------
         LAND SURFACE =          86180.68           LAND SURFACE =          69567.13
            SOIL ZONE =         531022.90              SOIL ZONE =         112080.73
     UNSATURATED ZONE =       -1820315.93       UNSATURATED ZONE =         -17907.43
       SATURATED ZONE =         479362.57         SATURATED ZONE =           6279.90

 OVERALL BUDGET ERROR =           6338.17           BUDGET ERROR =           1851.81


  PERCENT DISCREPANCY =              0.37    PERCENT DISCREPANCY =              1.00



1
 SUMMARY VOLUMETRIC BUDGET FOR GSFLOW 
 DATE: 12 02 1990              CUMULATIVE TIME STEP:       2
 MODFLOW STRESS PERIOD      4     CURRENT TIME STEP:      63     ITERATIONS:       6

 -----------------------------------------------------------------------------------

   CUMULATIVE VOLUMES               L**3   RATES FOR THIS TIME STEP           L**3/T
   ------------------                      ------------------------

                                     IN                                         IN
                                     --                                         --
        PRECIPITATION =        1449284.55          PRECIPITATION =                  
           STREAMFLOW =                               STREAMFLOW =                  
     GW BOUNDARY FLOW =                         GW BOUNDARY FLOW =                  


                                    OUT                                        OUT
                                    ---                                        ---
   EVAPOTRANSPIRATION =        1216864.51     EVAPOTRANSPIRATION =            234.54
           STREAMFLOW =         591321.25             STREAMFLOW =          11081.95
     GW BOUNDARY FLOW =           2271.86       GW BOUNDARY FLOW =             35.77

   INFLOWS - OUTFLOWS =        -361173.07     INFLOWS - OUTFLOWS =         -11352.26
             --------                                   --------

 TOTAL STORAGE CHANGE =        -368628.09         STORAGE CHANGE =         -11364.84
       --------------                             --------------
         LAND SURFACE =         486845.62           LAND SURFACE =           -339.04
            SOIL ZONE =         563283.26              SOIL ZONE =            142.51
     UNSATURATED ZONE =       -1943158.24       UNSATURATED ZONE =         -17254.98
       SATURATED ZONE =         524401.18         SATURATED ZONE =           6086.68

 OVERALL BUDGET ERROR =           7455.02           BUDGET ERROR =             12.58


  PERCENT DISCREPANCY =              0.41    PERCENT DISCREPANCY =              0.11



1
 SUMMARY VOLUMETRIC BUDGET FOR GSFLOW 
 DATE: 12 09 1990              CUMULATIVE TIME STEP:       9
 MODFLOW STRESS PERIOD      4     CURRENT TIME STEP:      70     ITERATIONS:       6

 -----------------------------------------------------------------------------------

   CUMULATIVE VOLUMES               L**3   RATES FOR THIS TIME STEP           L**3/T
   ------------------                      ------------------------

                                     IN                                         IN
                                     --                                         --
        PRECIPITATION =        1449284.55          PRECIPITATION =                  
           STREAMFLOW =                               STREAMFLOW =                  
     GW BOUNDARY FLOW =                         GW BOUNDARY FLOW =                  


                                    OUT                                        OUT
                                    ---                                        ---
   EVAPOTRANSPIRATION =        1291393.73     EVAPOTRANSPIRATION =          13356.01
           STREAMFLOW =         669075.41             STREAMFLOW =          10903.97
     GW BOUNDARY FLOW =           2521.82       GW BOUNDARY FLOW =             35.64

   INFLOWS - OUTFLOWS =        -513706.40     INFLOWS - OUTFLOWS =         -24295.63
             --------                                   --------

 TOTAL STORAGE CHANGE =        -525527.39         STORAGE CHANGE =         -24389.38
       --------------                             --------------
         LAND SURFACE =          67215.41           LAND SURFACE =         -45889.70
            SOIL ZONE =         907420.46              SOIL ZONE =          34153.91
     UNSATURATED ZONE =       -2060939.29       UNSATURATED ZONE =         -16478.15
       SATURATED ZONE =         560775.92         SATURATED ZONE =           3824.55

 OVERALL BUDGET ERROR =          11820.99           BUDGET ERROR =             93.75


  PERCENT DISCREPANCY =              0.60    PERCENT DISCREPANCY =              0.39



1
 SUMMARY VOLUMETRIC BUDGET FOR GSFLOW 
 DATE: 12 16 1990              CUMULATIVE TIME STEP:      16
 MODFLOW STRESS PERIOD      4     CURRENT TIME STEP:      77     ITERATIONS:       5

 -----------------------------------------------------------------------------------

   CUMULATIVE VOLUMES               L**3   RATES FOR THIS TIME STEP           L**3/T
   ------------------                      ------------------------

                                     IN                                         IN
                                     --                                         --
        PRECIPITATION =        1804962.84          PRECIPITATION =                  
           STREAMFLOW =                               STREAMFLOW =                  
     GW BOUNDARY FLOW =                         GW BOUNDARY FLOW =                  


                                    OUT                                        OUT
                                    ---                                        ---
   EVAPOTRANSPIRATION =        1319343.93     EVAPOTRANSPIRATION =                  
           STREAMFLOW =         748820.44             STREAMFLOW =          11520.42
     GW BOUNDARY FLOW =           2771.23       GW BOUNDARY FLOW =             35.61

   INFLOWS - OUTFLOWS =        -265972.76     INFLOWS - OUTFLOWS =         -11556.03
             --------                                   --------

 TOTAL STORAGE CHANGE =        -280055.26         STORAGE CHANGE =         -11571.25
       --------------                             --------------
         LAND SURFACE =         252566.26           LAND SURFACE =                  
            SOIL ZONE =        1050191.15              SOIL ZONE =            -33.02
     UNSATURATED ZONE =       -2174271.83       UNSATURATED ZONE =         -15929.59
       SATURATED ZONE =         591459.01         SATURATED ZONE =           4391.35

 OVERALL BUDGET ERROR =          14082.50           BUDGET ERROR =             15.22


  PERCENT DISCREPANCY =              0.68    PERCENT DISCREPANCY =              0.13



1
 SUMMARY VOLUMETRIC BUDGET FOR GSFLOW 
 DATE: 12 23 1990              CUMULATIVE TIME STEP:      23
 MODFLOW STRESS PERIOD      4     CURRENT TIME STEP:      84     ITERATIONS:       6

 -----------------------------------------------------------------------------------

   CUMULATIVE VOLUMES               L**3   RATES FOR THIS TIME STEP           L**3/T
   ------------------                      ------------------------

                                     IN                                         IN
                                     --                                         --
        PRECIPITATION =        2276236.55          PRECIPITATION =                  
           STREAMFLOW =                               STREAMFLOW =                  
     GW BOUNDARY FLOW =              0.08       GW BOUNDARY FLOW =              0.04


                                    OUT                                        OUT
                                    ---                                        ---
   EVAPOTRANSPIRATION =        1320401.45     EVAPOTRANSPIRATION =                  
           STREAMFLOW =         829661.08             STREAMFLOW =          11568.73
     GW BOUNDARY FLOW =           3020.26       GW BOUNDARY FLOW =             35.57

   INFLOWS - OUTFLOWS =         123153.84     INFLOWS - OUTFLOWS =         -11604.26
             --------                                   --------

 TOTAL STORAGE CHANGE =         108979.37         STORAGE CHANGE =         -11616.22
       --------------                             --------------
         LAND SURFACE =         722784.34           LAND SURFACE =                  
            SOIL ZONE =        1050308.07              SOIL ZONE =             46.52
     UNSATURATED ZONE =       -2283472.97       UNSATURATED ZONE =         -15355.67
       SATURATED ZONE =         619359.73         SATURATED ZONE =           3692.93

 OVERALL BUDGET ERROR =          14174.48           BUDGET ERROR =             11.96


  PERCENT DISCREPANCY =              0.62    PERCENT DISCREPANCY =              0.10



1
 SUMMARY VOLUMETRIC BUDGET FOR GSFLOW 
 DATE: 12 30 1990              CUMULATIVE TIME STEP:      30
 MODFLOW STRESS PERIOD      4     CURRENT TIME STEP:      91     ITERATIONS:       5

 -----------------------------------------------------------------------------------

   CUMULATIVE VOLUMES               L**3   RATES FOR THIS TIME STEP           L**3/T
   ------------------                      ------------------------

                                     IN                                         IN
                                     --                                         --
        PRECIPITATION =        2276236.55          PRECIPITATION =                  
           STREAMFLOW =                               STREAMFLOW =                  
     GW BOUNDARY FLOW =              0.77       GW BOUNDARY FLOW =              0.14


                                    OUT                                        OUT
                                    ---                                        ---
   EVAPOTRANSPIRATION =        1320968.95     EVAPOTRANSPIRATION =                  
           STREAMFLOW =         910910.19             STREAMFLOW =          11639.16
     GW BOUNDARY FLOW =           3269.37       GW BOUNDARY FLOW =             35.60

   INFLOWS - OUTFLOWS =          41088.82     INFLOWS - OUTFLOWS =         -11674.62
             --------                                   --------

 TOTAL STORAGE CHANGE =          26837.54         STORAGE CHANGE =         -11684.66
       --------------                             --------------
         LAND SURFACE =         722216.94           LAND SURFACE =                  
            SOIL ZONE =        1050835.82              SOIL ZONE =             94.59
     UNSATURATED ZONE =       -2388761.77       UNSATURATED ZONE =         -14807.88
       SATURATED ZONE =         642546.32         SATURATED ZONE =           3028.63

 OVERALL BUDGET ERROR =          14251.27           BUDGET ERROR =             10.04


  PERCENT DISCREPANCY =              0.63    PERCENT DISCREPANCY =              0.09



1
 SUMMARY VOLUMETRIC BUDGET FOR GSFLOW 
 DATE: 01 06 1991              CUMULATIVE TIME STEP:       6
 MODFLOW STRESS PERIOD      5     CURRENT TIME STEP:      98     ITERATIONS:       5

 -----------------------------------------------------------------------------------

   CUMULATIVE VOLUMES               L**3   RATES FOR THIS TIME STEP           L**3/T
   ------------------                      ------------------------

                                     IN                                         IN
                                     --                                         --
        PRECIPITATION =        2276236.55          PRECIPITATION =                  
           STREAMFLOW =                               STREAMFLOW =                  
     GW BOUNDARY FLOW =              2.09       GW BOUNDARY FLOW =              0.22


                                    OUT                                        OUT
                                    ---                                        ---
   EVAPOTRANSPIRATION =        1347967.42     EVAPOTRANSPIRATION =           3180.78
           STREAMFLOW =         992829.30             STREAMFLOW =          11743.58
     GW BOUNDARY FLOW =           3519.23       GW BOUNDARY FLOW =             35.75

   INFLOWS - OUTFLOWS =         -68077.31     INFLOWS - OUTFLOWS =         -14959.89
             --------                                   --------

 TOTAL STORAGE CHANGE =         -84880.50         STORAGE CHANGE =         -15092.27
       --------------                             --------------
         LAND SURFACE =         592099.77           LAND SURFACE =          -8106.31
            SOIL ZONE =        1152104.38              SOIL ZONE =           4885.87
     UNSATURATED ZONE =       -2490102.38       UNSATURATED ZONE =         -14245.22
       SATURATED ZONE =         661017.45         SATURATED ZONE =           2373.37

 OVERALL BUDGET ERROR =          16803.19           BUDGET ERROR =            132.39


  PERCENT DISCREPANCY =              0.71    PERCENT DISCREPANCY =              0.88



1
 SUMMARY VOLUMETRIC BUDGET FOR GSFLOW 
 DATE: 01 13 1991              CUMULATIVE TIME STEP:      13
 MODFLOW STRESS PERIOD      5     CURRENT TIME STEP:     105     ITERATIONS:       6

 -----------------------------------------------------------------------------------

   CUMULATIVE VOLUMES               L**3   RATES FOR THIS TIME STEP           L**3/T
   ------------------                      ------------------------

                                     IN                                         IN
                                     --                                         --
        PRECIPITATION =        2596386.94          PRECIPITATION =          10327.43
           STREAMFLOW =                               STREAMFLOW =                  
     GW BOUNDARY FLOW =              4.02       GW BOUNDARY FLOW =              0.31


                                    OUT                                        OUT
                                    ---                                        ---
   EVAPOTRANSPIRATION =        1413897.01     EVAPOTRANSPIRATION =          17874.58
           STREAMFLOW =        1075152.63             STREAMFLOW =          11698.30
     GW BOUNDARY FLOW =           3769.46       GW BOUNDARY FLOW =             35.73

   INFLOWS - OUTFLOWS =         103571.86     INFLOWS - OUTFLOWS =         -19280.87
             --------                                   --------

 TOTAL STORAGE CHANGE =          81819.71         STORAGE CHANGE =         -20505.12
       --------------                             --------------
         LAND SURFACE =         529885.07           LAND SURFACE =        -135264.71
            SOIL ZONE =        1465569.53              SOIL ZONE =         127476.63
     UNSATURATED ZONE =       -2587356.53       UNSATURATED ZONE =         -13680.83
       SATURATED ZONE =         673721.31         SATURATED ZONE =            963.78

 OVERALL BUDGET ERROR =          21752.16           BUDGET ERROR =           1224.26

  ***WARNING, FLUX RATES OFF > 3%

  PERCENT DISCREPANCY =              0.84    PERCENT DISCREPANCY =              4.05



1
 SUMMARY VOLUMETRIC BUDGET FOR GSFLOW 
 DATE: 01 20 1991              CUMULATIVE TIME STEP:      20
 MODFLOW STRESS PERIOD      5     CURRENT TIME STEP:     112     ITERATIONS:       5

 -----------------------------------------------------------------------------------

   CUMULATIVE VOLUMES               L**3   RATES FOR THIS TIME STEP           L**3/T
   ------------------                      ------------------------

                                     IN                                         IN
                                     --                                         --
        PRECIPITATION =        2596386.94          PRECIPITATION =                  
           STREAMFLOW =                               STREAMFLOW =                  
     GW BOUNDARY FLOW =              6.55       GW BOUNDARY FLOW =              0.40


                                    OUT                                        OUT
                                    ---                                        ---
   EVAPOTRANSPIRATION =        1488596.10     EVAPOTRANSPIRATION =           2353.10
           STREAMFLOW =        1158230.63             STREAMFLOW =          11899.35
     GW BOUNDARY FLOW =           4019.70       GW BOUNDARY FLOW =             35.75

   INFLOWS - OUTFLOWS =         -54452.95     INFLOWS - OUTFLOWS =         -14287.79
             --------                                   --------

 TOTAL STORAGE CHANGE =         -76973.23         STORAGE CHANGE =         -14286.95
       --------------                             --------------
         LAND SURFACE =         356897.60           LAND SURFACE =           -433.81
            SOIL ZONE =        1564405.85              SOIL ZONE =          -1838.94
     UNSATURATED ZONE =       -2680707.16       UNSATURATED ZONE =         -13119.84
       SATURATED ZONE =         682430.08         SATURATED ZONE =           1105.64

 OVERALL BUDGET ERROR =          22520.28           BUDGET ERROR =             -0.85


  PERCENT DISCREPANCY =              0.85    PERCENT DISCREPANCY =             -0.01



1
 SUMMARY VOLUMETRIC BUDGET FOR GSFLOW 
 DATE: 01 27 1991              CUMULATIVE TIME STEP:      27
 MODFLOW STRESS PERIOD      5     CURRENT TIME STEP:     119     ITERATIONS:       5

 -----------------------------------------------------------------------------------

   CUMULATIVE VOLUMES               L**3   RATES FOR THIS TIME STEP           L**3/T
   ------------------                      ------------------------

                                     IN                                         IN
                                     --                                         --
        PRECIPITATION =        2596386.94          PRECIPITATION =                  
           STREAMFLOW =                               STREAMFLOW =                  
     GW BOUNDARY FLOW =              9.65       GW BOUNDARY FLOW =              0.48


                                    OUT                                        OUT
                                    ---                                        ---
   EVAPOTRANSPIRATION =        1513258.28     EVAPOTRANSPIRATION =           1658.22
           STREAMFLOW =        1241493.04             STREAMFLOW =          11920.00
     GW BOUNDARY FLOW =           4269.91       GW BOUNDARY FLOW =             35.74

   INFLOWS - OUTFLOWS =        -162624.64     INFLOWS - OUTFLOWS =         -13613.48
             --------                                   --------

 TOTAL STORAGE CHANGE =        -185362.11         STORAGE CHANGE =         -13625.66
       --------------                             --------------
         LAND SURFACE =         323033.09           LAND SURFACE =           -547.84
            SOIL ZONE =        1574573.18              SOIL ZONE =          -1024.25
     UNSATURATED ZONE =       -2770610.43       UNSATURATED ZONE =         -12622.98
       SATURATED ZONE =         687641.60         SATURATED ZONE =            569.39

 OVERALL BUDGET ERROR =          22737.48           BUDGET ERROR =             12.19


  PERCENT DISCREPANCY =              0.82    PERCENT DISCREPANCY =              0.09



1
 SUMMARY VOLUMETRIC BUDGET FOR GSFLOW 
 DATE: 02 03 1991              CUMULATIVE TIME STEP:       3
 MODFLOW STRESS PERIOD      6     CURRENT TIME STEP:     126     ITERATIONS:       6

 -----------------------------------------------------------------------------------

   CUMULATIVE VOLUMES               L**3   RATES FOR THIS TIME STEP           L**3/T
   ------------------                      ------------------------

                                     IN                                         IN
                                     --                                         --
        PRECIPITATION =        3228422.31          PRECIPITATION =          30459.53
           STREAMFLOW =                               STREAMFLOW =                  
     GW BOUNDARY FLOW =             13.31       GW BOUNDARY FLOW =              0.55


                                    OUT                                        OUT
                                    ---                                        ---
   EVAPOTRANSPIRATION =        1616425.52     EVAPOTRANSPIRATION =          20932.53
           STREAMFLOW =        1326345.03             STREAMFLOW =          12227.69
     GW BOUNDARY FLOW =           4520.08       GW BOUNDARY FLOW =             35.74

   INFLOWS - OUTFLOWS =         281144.98     INFLOWS - OUTFLOWS =          -2735.87
             --------                                   --------

 TOTAL STORAGE CHANGE =         251430.03         STORAGE CHANGE =          -3016.28
       --------------                             --------------
         LAND SURFACE =         157683.43           LAND SURFACE =         -26376.35
            SOIL ZONE =        2263053.68              SOIL ZONE =          35671.34
     UNSATURATED ZONE =       -2857256.46       UNSATURATED ZONE =         -12212.96
       SATURATED ZONE =         687948.86         SATURATED ZONE =            -98.33

 OVERALL BUDGET ERROR =          29714.96           BUDGET ERROR =            280.41


  PERCENT DISCREPANCY =              0.92    PERCENT DISCREPANCY =              0.84



1
 SUMMARY VOLUMETRIC BUDGET FOR GSFLOW 
 DATE: 02 10 1991              CUMULATIVE TIME STEP:      10
 MODFLOW STRESS PERIOD      6     CURRENT TIME STEP:     133     ITERATIONS:       5

 -----------------------------------------------------------------------------------

   CUMULATIVE VOLUMES               L**3   RATES FOR THIS TIME STEP           L**3/T
   ------------------                      ------------------------

                                     IN                                         IN
                                     --                                         --
        PRECIPITATION =        3510173.01          PRECIPITATION =                  
           STREAMFLOW =                               STREAMFLOW =                  
     GW BOUNDARY FLOW =             17.48       GW BOUNDARY FLOW =              0.63


                                    OUT                                        OUT
                                    ---                                        ---
   EVAPOTRANSPIRATION =        1783062.49     EVAPOTRANSPIRATION =          25248.35
           STREAMFLOW =        1412500.75             STREAMFLOW =          12160.06
     GW BOUNDARY FLOW =           4770.17       GW BOUNDARY FLOW =             35.72

   INFLOWS - OUTFLOWS =         309857.08     INFLOWS - OUTFLOWS =         -37443.50
             --------                                   --------

 TOTAL STORAGE CHANGE =         277557.46         STORAGE CHANGE =         -37368.40
       --------------                             --------------
         LAND SURFACE =          75877.11           LAND SURFACE =          -8469.89
            SOIL ZONE =        2456146.62              SOIL ZONE =         -16612.14
     UNSATURATED ZONE =       -2940372.02       UNSATURATED ZONE =         -11703.37
       SATURATED ZONE =         685905.16         SATURATED ZONE =           -583.02

 OVERALL BUDGET ERROR =          32299.62           BUDGET ERROR =            -75.10


  PERCENT DISCREPANCY =              0.92    PERCENT DISCREPANCY =             -0.20



1
 SUMMARY VOLUMETRIC BUDGET FOR GSFLOW 
 DATE: 02 17 1991              CUMULATIVE TIME STEP:      17
 MODFLOW STRESS PERIOD      6     CURRENT TIME STEP:     140     ITERATIONS:       5

 -----------------------------------------------------------------------------------

   CUMULATIVE VOLUMES               L**3   RATES FOR THIS TIME STEP           L**3/T
   ------------------                      ------------------------

                                     IN                                         IN
                                     --                                         --
        PRECIPITATION =        3510173.01          PRECIPITATION =                  
           STREAMFLOW =                               STREAMFLOW =                  
     GW BOUNDARY FLOW =             22.16       GW BOUNDARY FLOW =              0.70


                                    OUT                                        OUT
                                    ---                                        ---
   EVAPOTRANSPIRATION =        2023031.48     EVAPOTRANSPIRATION =          23529.54
           STREAMFLOW =        1497215.68             STREAMFLOW =          12103.42
     GW BOUNDARY FLOW =           5020.10       GW BOUNDARY FLOW =             35.68

   INFLOWS - OUTFLOWS =         -15072.09     INFLOWS - OUTFLOWS =         -35667.94
             --------                                   --------

 TOTAL STORAGE CHANGE =         -46605.82         STORAGE CHANGE =         -35592.18
       --------------                             --------------
         LAND SURFACE =          17890.99           LAND SURFACE =          -1143.67
            SOIL ZONE =        2275984.31              SOIL ZONE =         -22286.36
     UNSATURATED ZONE =       -3020034.84       UNSATURATED ZONE =         -11074.46
       SATURATED ZONE =         679553.04         SATURATED ZONE =          -1087.70

 OVERALL BUDGET ERROR =          31533.73           BUDGET ERROR =            -75.76


  PERCENT DISCREPANCY =              0.89    PERCENT DISCREPANCY =             -0.21



1
 SUMMARY VOLUMETRIC BUDGET FOR GSFLOW 
 DATE: 02 24 1991              CUMULATIVE TIME STEP:      24
 MODFLOW STRESS PERIOD      6     CURRENT TIME STEP:     147     ITERATIONS:       5

 -----------------------------------------------------------------------------------

   CUMULATIVE VOLUMES               L**3   RATES FOR THIS TIME STEP           L**3/T
   ------------------                      ------------------------

                                     IN                                         IN
                                     --                                         --
        PRECIPITATION =        3510173.01          PRECIPITATION =                  
           STREAMFLOW =                               STREAMFLOW =                  
     GW BOUNDARY FLOW =             27.30       GW BOUNDARY FLOW =              0.76


                                    OUT                                        OUT
                                    ---                                        ---
   EVAPOTRANSPIRATION =        2235423.01     EVAPOTRANSPIRATION =          21574.95
           STREAMFLOW =        1581530.03             STREAMFLOW =          12035.34
     GW BOUNDARY FLOW =           5269.15       GW BOUNDARY FLOW =             35.51

   INFLOWS - OUTFLOWS =        -312021.88     INFLOWS - OUTFLOWS =         -33645.03
             --------                                   --------

 TOTAL STORAGE CHANGE =        -342859.00         STORAGE CHANGE =         -33572.59
       --------------                             --------------
         LAND SURFACE =           7435.72           LAND SURFACE =           -217.69
            SOIL ZONE =        2075827.76              SOIL ZONE =         -21099.55
     UNSATURATED ZONE =       -3095906.37       UNSATURATED ZONE =         -10668.78
       SATURATED ZONE =         669783.12         SATURATED ZONE =          -1586.57

 OVERALL BUDGET ERROR =          30837.12           BUDGET ERROR =            -72.44


  PERCENT DISCREPANCY =              0.80    PERCENT DISCREPANCY =             -0.22



1
 SUMMARY VOLUMETRIC BUDGET FOR GSFLOW 
 DATE: 03 03 1991              CUMULATIVE TIME STEP:       3
 MODFLOW STRESS PERIOD      7     CURRENT TIME STEP:     154     ITERATIONS:       5

 -----------------------------------------------------------------------------------

   CUMULATIVE VOLUMES               L**3   RATES FOR THIS TIME STEP           L**3/T
   ------------------                      ------------------------

                                     IN                                         IN
                                     --                                         --
        PRECIPITATION =        6220189.63          PRECIPITATION =        1243187.24
           STREAMFLOW =                               STREAMFLOW =                  
     GW BOUNDARY FLOW =             32.90       GW BOUNDARY FLOW =              0.83


                                    OUT                                        OUT
                                    ---                                        ---
   EVAPOTRANSPIRATION =        2387403.52     EVAPOTRANSPIRATION =           8435.45
           STREAMFLOW =        1665534.20             STREAMFLOW =          12341.15
     GW BOUNDARY FLOW =           5516.93       GW BOUNDARY FLOW =             35.34

   INFLOWS - OUTFLOWS =        2161767.88     INFLOWS - OUTFLOWS =        1222376.13
             --------                                   --------

 TOTAL STORAGE CHANGE =        2123884.93         STORAGE CHANGE =        1214896.05
       --------------                             --------------
         LAND SURFACE =        2352761.88           LAND SURFACE =         894135.84
            SOIL ZONE =        2284642.14              SOIL ZONE =         333399.87
     UNSATURATED ZONE =       -3168796.42       UNSATURATED ZONE =         -10258.70
       SATURATED ZONE =         655276.47         SATURATED ZONE =          -2380.98

 OVERALL BUDGET ERROR =          37882.95           BUDGET ERROR =           7480.08


  PERCENT DISCREPANCY =              0.61    PERCENT DISCREPANCY =              0.60



1
 SUMMARY VOLUMETRIC BUDGET FOR GSFLOW 
 DATE: 03 10 1991              CUMULATIVE TIME STEP:      10
 MODFLOW STRESS PERIOD      7     CURRENT TIME STEP:     161     ITERATIONS:       5

 -----------------------------------------------------------------------------------

   CUMULATIVE VOLUMES               L**3   RATES FOR THIS TIME STEP           L**3/T
   ------------------                      ------------------------

                                     IN                                         IN
                                     --                                         --
        PRECIPITATION =        8746030.42          PRECIPITATION =          32888.55
           STREAMFLOW =                               STREAMFLOW =                  
     GW BOUNDARY FLOW =             38.93       GW BOUNDARY FLOW =              0.89


                                    OUT                                        OUT
                                    ---                                        ---
   EVAPOTRANSPIRATION =        2460697.62     EVAPOTRANSPIRATION =           8863.44
           STREAMFLOW =        1849796.50             STREAMFLOW =          21908.12
     GW BOUNDARY FLOW =           5765.86       GW BOUNDARY FLOW =             35.44

   INFLOWS - OUTFLOWS =        4429809.37     INFLOWS - OUTFLOWS =           2082.43
             --------                                   --------

 TOTAL STORAGE CHANGE =        4355822.19         STORAGE CHANGE =            979.45
       --------------                             --------------
         LAND SURFACE =        2523463.28           LAND SURFACE =         -14137.08
            SOIL ZONE =        4371884.83              SOIL ZONE =          18393.22
     UNSATURATED ZONE =       -3189539.52       UNSATURATED ZONE =          -1944.71
       SATURATED ZONE =         650012.55         SATURATED ZONE =          -1332.01

 OVERALL BUDGET ERROR =          73987.19           BUDGET ERROR =           1102.98

  ***WARNING, FLUX RATES OFF > 3%

  PERCENT DISCREPANCY =              0.85    PERCENT DISCREPANCY =              3.41



1
 SUMMARY VOLUMETRIC BUDGET FOR GSFLOW 
 DATE: 03 17 1991              CUMULATIVE TIME STEP:      17
 MODFLOW STRESS PERIOD      7     CURRENT TIME STEP:     168     ITERATIONS:       5

 -----------------------------------------------------------------------------------

   CUMULATIVE VOLUMES               L**3   RATES FOR THIS TIME STEP           L**3/T
   ------------------                      ------------------------

                                     IN                                         IN
                                     --                                         --
        PRECIPITATION =        9897129.71          PRECIPITATION =         157865.04
           STREAMFLOW =                               STREAMFLOW =                  
     GW BOUNDARY FLOW =             45.37       GW BOUNDARY FLOW =              0.95


                                    OUT                                        OUT
                                    ---                                        ---
   EVAPOTRANSPIRATION =        2488536.02     EVAPOTRANSPIRATION =           8079.61
           STREAMFLOW =        1991124.82             STREAMFLOW =          19554.08
     GW BOUNDARY FLOW =           6013.12       GW BOUNDARY FLOW =             35.25

   INFLOWS - OUTFLOWS =        5411501.13     INFLOWS - OUTFLOWS =         130197.06
             --------                                   --------

 TOTAL STORAGE CHANGE =        5336030.42         STORAGE CHANGE =         130015.35
       --------------                             --------------
         LAND SURFACE =        3672302.31           LAND SURFACE =         157496.61
            SOIL ZONE =        4233048.81              SOIL ZONE =         -22649.17
     UNSATURATED ZONE =       -3206881.89       UNSATURATED ZONE =          -2770.79
       SATURATED ZONE =         637559.92         SATURATED ZONE =          -2061.32

 OVERALL BUDGET ERROR =          75470.71           BUDGET ERROR =            181.70


  PERCENT DISCREPANCY =              0.77    PERCENT DISCREPANCY =              0.12



1
 SUMMARY VOLUMETRIC BUDGET FOR GSFLOW 
 DATE: 03 24 1991              CUMULATIVE TIME STEP:      24
 MODFLOW STRESS PERIOD      7     CURRENT TIME STEP:     175     ITERATIONS:       5

 -----------------------------------------------------------------------------------

   CUMULATIVE VOLUMES               L**3   RATES FOR THIS TIME STEP           L**3/T
   ------------------                      ------------------------

                                     IN                                         IN
                                     --                                         --
        PRECIPITATION =        1.1673D+07          PRECIPITATION =        1230031.83
           STREAMFLOW =                               STREAMFLOW =                  
     GW BOUNDARY FLOW =             52.22       GW BOUNDARY FLOW =              1.00


                                    OUT                                        OUT
                                    ---                                        ---
   EVAPOTRANSPIRATION =        2527361.35     EVAPOTRANSPIRATION =           4663.34
           STREAMFLOW =        2124025.02             STREAMFLOW =          18691.82
     GW BOUNDARY FLOW =           6259.17       GW BOUNDARY FLOW =             35.08

   INFLOWS - OUTFLOWS =        7015518.18     INFLOWS - OUTFLOWS =        1206642.60
             --------                                   --------

 TOTAL STORAGE CHANGE =        6938105.96         STORAGE CHANGE =        1206469.63
       --------------                             --------------
         LAND SURFACE =        5426161.22           LAND SURFACE =        1230031.83
            SOIL ZONE =        4120414.20              SOIL ZONE =         -17545.26
     UNSATURATED ZONE =       -3229900.33       UNSATURATED ZONE =          -3529.45
       SATURATED ZONE =         621429.40         SATURATED ZONE =          -2487.51

 OVERALL BUDGET ERROR =          77412.21           BUDGET ERROR =            172.96


  PERCENT DISCREPANCY =              0.67    PERCENT DISCREPANCY =              0.01



1
 SUMMARY VOLUMETRIC BUDGET FOR GSFLOW 
 DATE: 03 31 1991              CUMULATIVE TIME STEP:      31
 MODFLOW STRESS PERIOD      7     CURRENT TIME STEP:     182     ITERATIONS:       6

 -----------------------------------------------------------------------------------

   CUMULATIVE VOLUMES               L**3   RATES FOR THIS TIME STEP           L**3/T
   ------------------                      ------------------------

                                     IN                                         IN
                                     --                                         --
        PRECIPITATION =        1.2495D+07          PRECIPITATION =                  
           STREAMFLOW =                               STREAMFLOW =                  
     GW BOUNDARY FLOW =             59.46       GW BOUNDARY FLOW =              1.06


                                    OUT                                        OUT
                                    ---                                        ---
   EVAPOTRANSPIRATION =        2649119.65     EVAPOTRANSPIRATION =          48053.54
           STREAMFLOW =        2256971.50             STREAMFLOW =          21943.57
     GW BOUNDARY FLOW =           6504.25       GW BOUNDARY FLOW =             35.02

   INFLOWS - OUTFLOWS =        7582789.35     INFLOWS - OUTFLOWS =         -70031.06
             --------                                   --------

 TOTAL STORAGE CHANGE =        7499736.12         STORAGE CHANGE =         -72998.49
       --------------                             --------------
         LAND SURFACE =        5977198.26           LAND SURFACE =        -148137.48
            SOIL ZONE =        4173840.31              SOIL ZONE =          80268.36
     UNSATURATED ZONE =       -3254473.02       UNSATURATED ZONE =          -2527.75
       SATURATED ZONE =         603168.88         SATURATED ZONE =          -2601.65

 OVERALL BUDGET ERROR =          83053.23           BUDGET ERROR =           2967.42

  ***WARNING, FLUX RATES OFF > 3%

  PERCENT DISCREPANCY =              0.67    PERCENT DISCREPANCY =              4.15



1
 SUMMARY VOLUMETRIC BUDGET FOR GSFLOW 
 DATE: 04 07 1991              CUMULATIVE TIME STEP:       7
 MODFLOW STRESS PERIOD      8     CURRENT TIME STEP:     189     ITERATIONS:       7

 -----------------------------------------------------------------------------------

   CUMULATIVE VOLUMES               L**3   RATES FOR THIS TIME STEP           L**3/T
   ------------------                      ------------------------

                                     IN                                         IN
                                     --                                         --
        PRECIPITATION =        1.3018D+07          PRECIPITATION =                  
           STREAMFLOW =                               STREAMFLOW =                  
     GW BOUNDARY FLOW =             67.07       GW BOUNDARY FLOW =              1.11


                                    OUT                                        OUT
                                    ---                                        ---
   EVAPOTRANSPIRATION =        2957212.09     EVAPOTRANSPIRATION =          15960.30
           STREAMFLOW =        2569972.61             STREAMFLOW =          62352.53
     GW BOUNDARY FLOW =           6751.57       GW BOUNDARY FLOW =             35.59

   INFLOWS - OUTFLOWS =        7483867.53     INFLOWS - OUTFLOWS =         -78347.31
             --------                                   --------

 TOTAL STORAGE CHANGE =        7363538.27         STORAGE CHANGE =         -81075.22
       --------------                             --------------
         LAND SURFACE =        4335933.24           LAND SURFACE =         -73164.41
            SOIL ZONE =        5671938.84              SOIL ZONE =         -14900.56
     UNSATURATED ZONE =       -3232084.95       UNSATURATED ZONE =           9048.84
       SATURATED ZONE =         587749.18         SATURATED ZONE =          -2059.13

 OVERALL BUDGET ERROR =         120329.27           BUDGET ERROR =           2727.91

  ***WARNING, FLUX RATES OFF > 3%

  PERCENT DISCREPANCY =              0.93    PERCENT DISCREPANCY =              3.42



1
 SUMMARY VOLUMETRIC BUDGET FOR GSFLOW 
 DATE: 04 14 1991              CUMULATIVE TIME STEP:      14
 MODFLOW STRESS PERIOD      8     CURRENT TIME STEP:     196     ITERATIONS:       7

 -----------------------------------------------------------------------------------

   CUMULATIVE VOLUMES               L**3   RATES FOR THIS TIME STEP           L**3/T
   ------------------                      ------------------------

                                     IN                                         IN
                                     --                                         --
        PRECIPITATION =        1.3018D+07          PRECIPITATION =                  
           STREAMFLOW =                               STREAMFLOW =                  
     GW BOUNDARY FLOW =             74.99       GW BOUNDARY FLOW =              1.15


                                    OUT                                        OUT
                                    ---                                        ---
   EVAPOTRANSPIRATION =        3141321.81     EVAPOTRANSPIRATION =          42037.35
           STREAMFLOW =        3050394.11             STREAMFLOW =          73052.77
     GW BOUNDARY FLOW =           7000.72       GW BOUNDARY FLOW =             35.60

   INFLOWS - OUTFLOWS =        6819095.09     INFLOWS - OUTFLOWS =        -115124.56
             --------                                   --------

 TOTAL STORAGE CHANGE =        6675774.16         STORAGE CHANGE =        -119926.83
       --------------                             --------------
         LAND SURFACE =        3672284.11           LAND SURFACE =        -192335.10
            SOIL ZONE =        5601654.91              SOIL ZONE =          66185.52
     UNSATURATED ZONE =       -3172347.34       UNSATURATED ZONE =           7994.81
       SATURATED ZONE =         574180.22         SATURATED ZONE =          -1772.10

 OVERALL BUDGET ERROR =         143320.93           BUDGET ERROR =           4802.26

  ***WARNING, FLUX RATES OFF > 3%

  PERCENT DISCREPANCY =              1.11    PERCENT DISCREPANCY =              4.09



1
 SUMMARY VOLUMETRIC BUDGET FOR GSFLOW 
 DATE: 04 21 1991              CUMULATIVE TIME STEP:      21
 MODFLOW STRESS PERIOD      8     CURRENT TIME STEP:     203     ITERATIONS:       9

 -----------------------------------------------------------------------------------

   CUMULATIVE VOLUMES               L**3   RATES FOR THIS TIME STEP           L**3/T
   ------------------                      ------------------------

                                     IN                                         IN
                                     --                                         --
        PRECIPITATION =        1.3034D+07          PRECIPITATION =                  
           STREAMFLOW =                               STREAMFLOW =                  
     GW BOUNDARY FLOW =             83.22       GW BOUNDARY FLOW =              1.19


                                    OUT                                        OUT
                                    ---                                        ---
   EVAPOTRANSPIRATION =        3394954.90     EVAPOTRANSPIRATION =          46894.79
           STREAMFLOW =        3602089.51             STREAMFLOW =          90066.77
     GW BOUNDARY FLOW =           7250.06       GW BOUNDARY FLOW =             35.73

   INFLOWS - OUTFLOWS =        6029850.85     INFLOWS - OUTFLOWS =        -136996.09
             --------                                   --------

 TOTAL STORAGE CHANGE =        5855854.22         STORAGE CHANGE =        -142091.65
       --------------                             --------------
         LAND SURFACE =        2500870.94           LAND SURFACE =        -216968.59
            SOIL ZONE =        5903948.47              SOIL ZONE =          66086.37
     UNSATURATED ZONE =       -3111260.98       UNSATURATED ZONE =          10252.69
       SATURATED ZONE =         562293.16         SATURATED ZONE =          -1462.17

 OVERALL BUDGET ERROR =         173996.63           BUDGET ERROR =           5095.56

  ***WARNING, FLUX RATES OFF > 3%

  PERCENT DISCREPANCY =              1.34    PERCENT DISCREPANCY =              3.65



1
 SUMMARY VOLUMETRIC BUDGET FOR GSFLOW 
 DATE: 04 28 1991              CUMULATIVE TIME STEP:      28
 MODFLOW STRESS PERIOD      8     CURRENT TIME STEP:     210     ITERATIONS:       7

 -----------------------------------------------------------------------------------

   CUMULATIVE VOLUMES               L**3   RATES FOR THIS TIME STEP           L**3/T
   ------------------                      ------------------------

                                     IN                                         IN
                                     --                                         --
        PRECIPITATION =        1.3303D+07          PRECIPITATION =                  
           STREAMFLOW =                               STREAMFLOW =                  
     GW BOUNDARY FLOW =             91.72       GW BOUNDARY FLOW =              1.23


                                    OUT                                        OUT
                                    ---                                        ---
   EVAPOTRANSPIRATION =        3663373.06     EVAPOTRANSPIRATION =          58231.63
           STREAMFLOW =        4247508.83             STREAMFLOW =          91224.08
     GW BOUNDARY FLOW =           7499.93       GW BOUNDARY FLOW =             35.64

   INFLOWS - OUTFLOWS =        5385140.40     INFLOWS - OUTFLOWS =        -149490.12
             --------                                   --------

 TOTAL STORAGE CHANGE =        5179285.07         STORAGE CHANGE =        -153502.99
       --------------                             --------------
         LAND SURFACE =        1748447.64           LAND SURFACE =        -137153.52
            SOIL ZONE =        5914918.96              SOIL ZONE =         -25369.04
     UNSATURATED ZONE =       -3037990.67       UNSATURATED ZONE =           9928.64
       SATURATED ZONE =         553906.13         SATURATED ZONE =           -909.12

 OVERALL BUDGET ERROR =         205855.33           BUDGET ERROR =           4012.87


  PERCENT DISCREPANCY =              1.56    PERCENT DISCREPANCY =              2.65



1
 SUMMARY VOLUMETRIC BUDGET FOR GSFLOW 
 DATE: 05 05 1991              CUMULATIVE TIME STEP:       5
 MODFLOW STRESS PERIOD      9     CURRENT TIME STEP:     217     ITERATIONS:     143

 -----------------------------------------------------------------------------------

   CUMULATIVE VOLUMES               L**3   RATES FOR THIS TIME STEP           L**3/T
   ------------------                      ------------------------

                                     IN                                         IN
                                     --                                         --
        PRECIPITATION =        1.3510D+07          PRECIPITATION =                  
           STREAMFLOW =                               STREAMFLOW =                  
     GW BOUNDARY FLOW =            100.48       GW BOUNDARY FLOW =              1.27


                                    OUT                                        OUT
                                    ---                                        ---
   EVAPOTRANSPIRATION =        4040896.39     EVAPOTRANSPIRATION =          90410.15
           STREAMFLOW =        4833075.79             STREAMFLOW =          84148.40
     GW BOUNDARY FLOW =           7748.28       GW BOUNDARY FLOW =             35.42

   INFLOWS - OUTFLOWS =        4628088.15     INFLOWS - OUTFLOWS =        -174592.70
             --------                                   --------

 TOTAL STORAGE CHANGE =        4397800.75         STORAGE CHANGE =        -177919.58
       --------------                             --------------
         LAND SURFACE =        1036420.07           LAND SURFACE =        -150153.36
            SOIL ZONE =        5790707.07              SOIL ZONE =         -35541.01
     UNSATURATED ZONE =       -2975437.68       UNSATURATED ZONE =           7759.20
       SATURATED ZONE =         546107.85         SATURATED ZONE =             15.53

 OVERALL BUDGET ERROR =         230287.40           BUDGET ERROR =           3326.88


  PERCENT DISCREPANCY =              1.72    PERCENT DISCREPANCY =              1.89



1
 SUMMARY VOLUMETRIC BUDGET FOR GSFLOW 
 DATE: 05 12 1991              CUMULATIVE TIME STEP:      12
 MODFLOW STRESS PERIOD      9     CURRENT TIME STEP:     224     ITERATIONS:       7

 -----------------------------------------------------------------------------------

   CUMULATIVE VOLUMES               L**3   RATES FOR THIS TIME STEP           L**3/T
   ------------------                      ------------------------

                                     IN                                         IN
                                     --                                         --
        PRECIPITATION =        1.4029D+07          PRECIPITATION =                  
           STREAMFLOW =                               STREAMFLOW =                  
     GW BOUNDARY FLOW =            109.51       GW BOUNDARY FLOW =              1.31


                                    OUT                                        OUT
                                    ---                                        ---
   EVAPOTRANSPIRATION =        4436502.09     EVAPOTRANSPIRATION =          68949.20
           STREAMFLOW =        5379186.27             STREAMFLOW =          81302.83
     GW BOUNDARY FLOW =           7994.92       GW BOUNDARY FLOW =             35.19

   INFLOWS - OUTFLOWS =        4205648.40     INFLOWS - OUTFLOWS =        -150285.91
             --------                                   --------

 TOTAL STORAGE CHANGE =        3951072.29         STORAGE CHANGE =        -153352.00
       --------------                             --------------
         LAND SURFACE =         579124.41           LAND SURFACE =        -205427.93
            SOIL ZONE =        5752011.78              SOIL ZONE =          45247.31
     UNSATURATED ZONE =       -2917013.84       UNSATURATED ZONE =           8299.21
       SATURATED ZONE =         536946.08         SATURATED ZONE =          -1470.66

 OVERALL BUDGET ERROR =         254576.11           BUDGET ERROR =           3066.09


  PERCENT DISCREPANCY =              1.83    PERCENT DISCREPANCY =              2.02



1
 SUMMARY VOLUMETRIC BUDGET FOR GSFLOW 
 DATE: 05 19 1991              CUMULATIVE TIME STEP:      19
 MODFLOW STRESS PERIOD      9     CURRENT TIME STEP:     231     ITERATIONS:       7

 -----------------------------------------------------------------------------------

   CUMULATIVE VOLUMES               L**3   RATES FOR THIS TIME STEP           L**3/T
   ------------------                      ------------------------

                                     IN                                         IN
                                     --                                         --
        PRECIPITATION =        1.4365D+07          PRECIPITATION =                  
           STREAMFLOW =                               STREAMFLOW =                  
     GW BOUNDARY FLOW =            118.81       GW BOUNDARY FLOW =              1.35


                                    OUT                                        OUT
                                    ---                                        ---
   EVAPOTRANSPIRATION =        4875159.90     EVAPOTRANSPIRATION =          20444.02
           STREAMFLOW =        5854532.95             STREAMFLOW =          60089.21
     GW BOUNDARY FLOW =           8239.38       GW BOUNDARY FLOW =             34.74

   INFLOWS - OUTFLOWS =        3627564.90     INFLOWS - OUTFLOWS =         -80566.62
             --------                                   --------

 TOTAL STORAGE CHANGE =        3355519.09         STORAGE CHANGE =         -82391.94
       --------------                             --------------
         LAND SURFACE =         228252.15           LAND SURFACE =         -22354.64
            SOIL ZONE =        5472317.83              SOIL ZONE =         -63745.53
     UNSATURATED ZONE =       -2870991.51       UNSATURATED ZONE =           5282.84
       SATURATED ZONE =         525936.32         SATURATED ZONE =          -1574.66

 OVERALL BUDGET ERROR =         272045.81           BUDGET ERROR =           1825.32


  PERCENT DISCREPANCY =              1.91    PERCENT DISCREPANCY =              2.24



1
 SUMMARY VOLUMETRIC BUDGET FOR GSFLOW 
 DATE: 05 26 1991              CUMULATIVE TIME STEP:      26
 MODFLOW STRESS PERIOD      9     CURRENT TIME STEP:     238     ITERATIONS:       6

 -----------------------------------------------------------------------------------

   CUMULATIVE VOLUMES               L**3   RATES FOR THIS TIME STEP           L**3/T
   ------------------                      ------------------------

                                     IN                                         IN
                                     --                                         --
        PRECIPITATION =        1.4426D+07          PRECIPITATION =                  
           STREAMFLOW =                               STREAMFLOW =                  
     GW BOUNDARY FLOW =            128.40       GW BOUNDARY FLOW =              1.39


                                    OUT                                        OUT
                                    ---                                        ---
   EVAPOTRANSPIRATION =        5559782.31     EVAPOTRANSPIRATION =          76899.58
           STREAMFLOW =        6196362.07             STREAMFLOW =          36216.91
     GW BOUNDARY FLOW =           8480.67       GW BOUNDARY FLOW =             34.19

   INFLOWS - OUTFLOWS =        2662000.96     INFLOWS - OUTFLOWS =        -113149.29
             --------                                   --------

 TOTAL STORAGE CHANGE =        2381525.28         STORAGE CHANGE =        -113832.20
       --------------                             --------------
         LAND SURFACE =          55233.90           LAND SURFACE =          -8157.37
            SOIL ZONE =        4666000.09              SOIL ZONE =        -103082.41
     UNSATURATED ZONE =       -2852719.18       UNSATURATED ZONE =           -426.06
       SATURATED ZONE =         513005.72         SATURATED ZONE =          -2166.42

 OVERALL BUDGET ERROR =         280475.68           BUDGET ERROR =            682.91


  PERCENT DISCREPANCY =              1.96    PERCENT DISCREPANCY =              0.60



1
 SUMMARY VOLUMETRIC BUDGET FOR GSFLOW 
 DATE: 06 02 1991              CUMULATIVE TIME STEP:       2
 MODFLOW STRESS PERIOD     10     CURRENT TIME STEP:     245     ITERATIONS:       6

 -----------------------------------------------------------------------------------

   CUMULATIVE VOLUMES               L**3   RATES FOR THIS TIME STEP           L**3/T
   ------------------                      ------------------------

                                     IN                                         IN
                                     --                                         --
        PRECIPITATION =        1.4671D+07          PRECIPITATION =                  
           STREAMFLOW =                               STREAMFLOW =                  
     GW BOUNDARY FLOW =            138.28       GW BOUNDARY FLOW =              1.43


                                    OUT                                        OUT
                                    ---                                        ---
   EVAPOTRANSPIRATION =        6148954.36     EVAPOTRANSPIRATION =         127565.25
           STREAMFLOW =        6417378.85             STREAMFLOW =          27771.06
     GW BOUNDARY FLOW =           8718.72       GW BOUNDARY FLOW =             33.87

   INFLOWS - OUTFLOWS =        2096061.14     INFLOWS - OUTFLOWS =        -155368.75
             --------                                   --------

 TOTAL STORAGE CHANGE =        1811985.31         STORAGE CHANGE =        -154684.06
       --------------                             --------------
         LAND SURFACE =          19760.70           LAND SURFACE =          -4094.13
            SOIL ZONE =        4164433.75              SOIL ZONE =        -144653.97
     UNSATURATED ZONE =       -2867116.46       UNSATURATED ZONE =          -2999.01
       SATURATED ZONE =         494902.13         SATURATED ZONE =          -2937.02

 OVERALL BUDGET ERROR =         284075.83           BUDGET ERROR =           -684.69


  PERCENT DISCREPANCY =              1.96    PERCENT DISCREPANCY =             -0.44



1
 SUMMARY VOLUMETRIC BUDGET FOR GSFLOW 
 DATE: 06 09 1991              CUMULATIVE TIME STEP:       9
 MODFLOW STRESS PERIOD     10     CURRENT TIME STEP:     252     ITERATIONS:       6

 -----------------------------------------------------------------------------------

   CUMULATIVE VOLUMES               L**3   RATES FOR THIS TIME STEP           L**3/T
   ------------------                      ------------------------

                                     IN                                         IN
                                     --                                         --
        PRECIPITATION =        1.4671D+07          PRECIPITATION =                  
           STREAMFLOW =                               STREAMFLOW =                  
     GW BOUNDARY FLOW =            148.46       GW BOUNDARY FLOW =              1.47


                                    OUT                                        OUT
                                    ---                                        ---
   EVAPOTRANSPIRATION =        6937432.24     EVAPOTRANSPIRATION =         172470.23
           STREAMFLOW =        6574019.00             STREAMFLOW =          19027.00
     GW BOUNDARY FLOW =           8954.34       GW BOUNDARY FLOW =             33.52

   INFLOWS - OUTFLOWS =        1150717.68     INFLOWS - OUTFLOWS =        -191529.28
             --------                                   --------

 TOTAL STORAGE CHANGE =         872139.18         STORAGE CHANGE =        -190072.30
       --------------                             --------------
         LAND SURFACE =           3957.39           LAND SURFACE =          -2186.13
            SOIL ZONE =        3298880.91              SOIL ZONE =        -178001.41
     UNSATURATED ZONE =       -2901400.98       UNSATURATED ZONE =          -5969.79
       SATURATED ZONE =         470696.21         SATURATED ZONE =          -3915.03

 OVERALL BUDGET ERROR =         278578.51           BUDGET ERROR =          -1456.98


  PERCENT DISCREPANCY =              1.92    PERCENT DISCREPANCY =             -0.76



1
 SUMMARY VOLUMETRIC BUDGET FOR GSFLOW 
 DATE: 06 16 1991              CUMULATIVE TIME STEP:      16
 MODFLOW STRESS PERIOD     10     CURRENT TIME STEP:     259     ITERATIONS:       7

 -----------------------------------------------------------------------------------

   CUMULATIVE VOLUMES               L**3   RATES FOR THIS TIME STEP           L**3/T
   ------------------                      ------------------------

                                     IN                                         IN
                                     --                                         --
        PRECIPITATION =        1.4671D+07          PRECIPITATION =                  
           STREAMFLOW =                               STREAMFLOW =                  
     GW BOUNDARY FLOW =            158.94       GW BOUNDARY FLOW =              1.52


                                    OUT                                        OUT
                                    ---                                        ---
   EVAPOTRANSPIRATION =        7953863.39     EVAPOTRANSPIRATION =         116908.97
           STREAMFLOW =        6677287.56             STREAMFLOW =          12694.26
     GW BOUNDARY FLOW =           9186.45       GW BOUNDARY FLOW =             33.05

   INFLOWS - OUTFLOWS =          30796.34     INFLOWS - OUTFLOWS =        -129634.76
             --------                                   --------

 TOTAL STORAGE CHANGE =        -238672.64         STORAGE CHANGE =        -128729.23
       --------------                             --------------
         LAND SURFACE =            106.65           LAND SURFACE =            -66.98
            SOIL ZONE =        2306285.72              SOIL ZONE =        -107560.22
     UNSATURATED ZONE =       -2983184.87       UNSATURATED ZONE =         -15524.84
       SATURATED ZONE =         438113.76         SATURATED ZONE =          -5577.26

 OVERALL BUDGET ERROR =         269468.98           BUDGET ERROR =           -905.53


  PERCENT DISCREPANCY =              1.82    PERCENT DISCREPANCY =             -0.70



1
 SUMMARY VOLUMETRIC BUDGET FOR GSFLOW 
 DATE: 06 23 1991              CUMULATIVE TIME STEP:      23
 MODFLOW STRESS PERIOD     10     CURRENT TIME STEP:     266     ITERATIONS:       7

 -----------------------------------------------------------------------------------

   CUMULATIVE VOLUMES               L**3   RATES FOR THIS TIME STEP           L**3/T
   ------------------                      ------------------------

                                     IN                                         IN
                                     --                                         --
        PRECIPITATION =        1.4671D+07          PRECIPITATION =                  
           STREAMFLOW =                               STREAMFLOW =                  
     GW BOUNDARY FLOW =            169.74       GW BOUNDARY FLOW =              1.56


                                    OUT                                        OUT
                                    ---                                        ---
   EVAPOTRANSPIRATION =        8495265.62     EVAPOTRANSPIRATION =          38645.53
           STREAMFLOW =        6758910.63             STREAMFLOW =          11928.18
     GW BOUNDARY FLOW =           9417.17       GW BOUNDARY FLOW =             32.92

   INFLOWS - OUTFLOWS =        -592448.88     INFLOWS - OUTFLOWS =         -50605.07
             --------                                   --------

 TOTAL STORAGE CHANGE =        -858346.41         STORAGE CHANGE =         -50329.02
       --------------                             --------------
         LAND SURFACE =             16.57           LAND SURFACE =             -3.65
            SOIL ZONE =        1839981.02              SOIL ZONE =         -31416.79
     UNSATURATED ZONE =       -3091393.82       UNSATURATED ZONE =         -12397.26
       SATURATED ZONE =         393043.29         SATURATED ZONE =          -6511.39

 OVERALL BUDGET ERROR =         265897.53           BUDGET ERROR =           -276.05


  PERCENT DISCREPANCY =              1.73    PERCENT DISCREPANCY =             -0.55



1
 SUMMARY VOLUMETRIC BUDGET FOR GSFLOW 
 DATE: 06 30 1991              CUMULATIVE TIME STEP:      30
 MODFLOW STRESS PERIOD     10     CURRENT TIME STEP:     273     ITERATIONS:       8

 -----------------------------------------------------------------------------------

[...]
                                    ---                                        ---
   EVAPOTRANSPIRATION =        7.2754D+07     EVAPOTRANSPIRATION =          72742.70
           STREAMFLOW =        6.9885D+07             STREAMFLOW =           7696.18
     GW BOUNDARY FLOW =          50935.10       GW BOUNDARY FLOW =             24.10

   INFLOWS - OUTFLOWS =       -9175868.16     INFLOWS - OUTFLOWS =         -80459.51
             --------                                   --------

 TOTAL STORAGE CHANGE =       -1.1975D+07         STORAGE CHANGE =         -80146.86
       --------------                             --------------
         LAND SURFACE =         179293.22           LAND SURFACE =         -11102.33
            SOIL ZONE =        1395646.64              SOIL ZONE =         -50597.16
     UNSATURATED ZONE =         -34703.03       UNSATURATED ZONE =         -11550.30
       SATURATED ZONE =       -1.3515D+07         SATURATED ZONE =          -6897.59

 OVERALL BUDGET ERROR =        2798828.71           BUDGET ERROR =           -312.65


  PERCENT DISCREPANCY =              1.94    PERCENT DISCREPANCY =             -0.39



1
 SUMMARY VOLUMETRIC BUDGET FOR GSFLOW 
 DATE: 09 03 1995              CUMULATIVE TIME STEP:       3
 MODFLOW STRESS PERIOD     61     CURRENT TIME STEP:    1799     ITERATIONS:       7

 -----------------------------------------------------------------------------------

   CUMULATIVE VOLUMES               L**3   RATES FOR THIS TIME STEP           L**3/T
   ------------------                      ------------------------

                                     IN                                         IN
                                     --                                         --
        PRECIPITATION =        1.3351D+08          PRECIPITATION =                  
           STREAMFLOW =                               STREAMFLOW =                  
     GW BOUNDARY FLOW =           5645.46       GW BOUNDARY FLOW =              3.56


                                    OUT                                        OUT
                                    ---                                        ---
   EVAPOTRANSPIRATION =        7.3234D+07     EVAPOTRANSPIRATION =          63241.34
           STREAMFLOW =        6.9934D+07             STREAMFLOW =           6737.53
     GW BOUNDARY FLOW =          51103.30       GW BOUNDARY FLOW =             23.98

   INFLOWS - OUTFLOWS =       -9704871.98     INFLOWS - OUTFLOWS =         -69999.29
             --------                                   --------

 TOTAL STORAGE CHANGE =       -1.2502D+07         STORAGE CHANGE =         -69976.48
       --------------                             --------------
         LAND SURFACE =         114525.52           LAND SURFACE =          -7766.54
            SOIL ZONE =        1062264.23              SOIL ZONE =         -43759.06
     UNSATURATED ZONE =        -110989.27       UNSATURATED ZONE =         -10663.88
       SATURATED ZONE =       -1.3569D+07         SATURATED ZONE =          -7787.52

 OVERALL BUDGET ERROR =        2797548.12           BUDGET ERROR =            -22.81


  PERCENT DISCREPANCY =              1.93    PERCENT DISCREPANCY =             -0.03



1
 SUMMARY VOLUMETRIC BUDGET FOR GSFLOW 
 DATE: 09 10 1995              CUMULATIVE TIME STEP:      10
 MODFLOW STRESS PERIOD     61     CURRENT TIME STEP:    1806     ITERATIONS:       7

 -----------------------------------------------------------------------------------

   CUMULATIVE VOLUMES               L**3   RATES FOR THIS TIME STEP           L**3/T
   ------------------                      ------------------------

                                     IN                                         IN
                                     --                                         --
        PRECIPITATION =        1.3351D+08          PRECIPITATION =                  
           STREAMFLOW =                               STREAMFLOW =                  
     GW BOUNDARY FLOW =           5670.73       GW BOUNDARY FLOW =              3.65


                                    OUT                                        OUT
                                    ---                                        ---
   EVAPOTRANSPIRATION =        7.3588D+07     EVAPOTRANSPIRATION =          47352.41
           STREAMFLOW =        6.9983D+07             STREAMFLOW =           6724.76
     GW BOUNDARY FLOW =          51271.25       GW BOUNDARY FLOW =             23.98

   INFLOWS - OUTFLOWS =       -1.0107D+07     INFLOWS - OUTFLOWS =         -54097.49
             --------                                   --------

 TOTAL STORAGE CHANGE =       -1.2905D+07         STORAGE CHANGE =         -54081.19
       --------------                             --------------
         LAND SURFACE =          75925.35           LAND SURFACE =          -4673.87
            SOIL ZONE =         820645.00              SOIL ZONE =         -31634.27
     UNSATURATED ZONE =        -181927.40       UNSATURATED ZONE =         -10226.84
       SATURATED ZONE =       -1.3620D+07         SATURATED ZONE =          -7546.72

 OVERALL BUDGET ERROR =        2797431.72           BUDGET ERROR =            -16.30


  PERCENT DISCREPANCY =              1.93    PERCENT DISCREPANCY =             -0.03



1
 SUMMARY VOLUMETRIC BUDGET FOR GSFLOW 
 DATE: 09 17 1995              CUMULATIVE TIME STEP:      17
 MODFLOW STRESS PERIOD     61     CURRENT TIME STEP:    1813     ITERATIONS:       7

 -----------------------------------------------------------------------------------

   CUMULATIVE VOLUMES               L**3   RATES FOR THIS TIME STEP           L**3/T
   ------------------                      ------------------------

                                     IN                                         IN
                                     --                                         --
        PRECIPITATION =        1.3351D+08          PRECIPITATION =                  
           STREAMFLOW =                               STREAMFLOW =                  
     GW BOUNDARY FLOW =           5696.62       GW BOUNDARY FLOW =              3.74


                                    OUT                                        OUT
                                    ---                                        ---
   EVAPOTRANSPIRATION =        7.3969D+07     EVAPOTRANSPIRATION =          43227.04
           STREAMFLOW =        7.0022D+07             STREAMFLOW =           5863.38
     GW BOUNDARY FLOW =          51438.39       GW BOUNDARY FLOW =             23.90

   INFLOWS - OUTFLOWS =       -1.0529D+07     INFLOWS - OUTFLOWS =         -49110.59
             --------                                   --------

 TOTAL STORAGE CHANGE =       -1.3326D+07         STORAGE CHANGE =         -49094.13
       --------------                             --------------
         LAND SURFACE =          44186.54           LAND SURFACE =          -3043.17
            SOIL ZONE =         574474.19              SOIL ZONE =         -26798.63
     UNSATURATED ZONE =        -257356.39       UNSATURATED ZONE =         -10458.31
       SATURATED ZONE =       -1.3688D+07         SATURATED ZONE =          -8794.53

 OVERALL BUDGET ERROR =        2797280.85           BUDGET ERROR =            -16.46


  PERCENT DISCREPANCY =              1.92    PERCENT DISCREPANCY =             -0.03



1
 SUMMARY VOLUMETRIC BUDGET FOR GSFLOW 
 DATE: 09 24 1995              CUMULATIVE TIME STEP:      24
 MODFLOW STRESS PERIOD     61     CURRENT TIME STEP:    1820     ITERATIONS:       6

 -----------------------------------------------------------------------------------

   CUMULATIVE VOLUMES               L**3   RATES FOR THIS TIME STEP           L**3/T
   ------------------                      ------------------------

                                     IN                                         IN
                                     --                                         --
        PRECIPITATION =        1.3351D+08          PRECIPITATION =                  
           STREAMFLOW =                               STREAMFLOW =                  
     GW BOUNDARY FLOW =           5723.12       GW BOUNDARY FLOW =              3.82


                                    OUT                                        OUT
                                    ---                                        ---
   EVAPOTRANSPIRATION =        7.4235D+07     EVAPOTRANSPIRATION =          27542.13
           STREAMFLOW =        7.0064D+07             STREAMFLOW =           6483.16
     GW BOUNDARY FLOW =          51605.66       GW BOUNDARY FLOW =             23.94

   INFLOWS - OUTFLOWS =       -1.0837D+07     INFLOWS - OUTFLOWS =         -34045.41
             --------                                   --------

 TOTAL STORAGE CHANGE =       -1.3634D+07         STORAGE CHANGE =         -34037.64
       --------------                             --------------
         LAND SURFACE =          28055.76           LAND SURFACE =          -1559.79
            SOIL ZONE =         417011.58              SOIL ZONE =         -15699.42
     UNSATURATED ZONE =        -328125.23       UNSATURATED ZONE =          -9002.30
       SATURATED ZONE =       -1.3751D+07         SATURATED ZONE =          -7776.63

 OVERALL BUDGET ERROR =        2797178.21           BUDGET ERROR =             -7.78


  PERCENT DISCREPANCY =              1.92    PERCENT DISCREPANCY =             -0.02



1
 SUMMARY VOLUMETRIC BUDGET FOR GSFLOW 
 DATE: 10 01 1995              CUMULATIVE TIME STEP:       1
 MODFLOW STRESS PERIOD     62     CURRENT TIME STEP:    1827     ITERATIONS:       6

 -----------------------------------------------------------------------------------

   CUMULATIVE VOLUMES               L**3   RATES FOR THIS TIME STEP           L**3/T
   ------------------                      ------------------------

                                     IN                                         IN
                                     --                                         --
        PRECIPITATION =        1.3351D+08          PRECIPITATION =                  
           STREAMFLOW =                               STREAMFLOW =                  
     GW BOUNDARY FLOW =           5750.17       GW BOUNDARY FLOW =              3.90


                                    OUT                                        OUT
                                    ---                                        ---
   EVAPOTRANSPIRATION =        7.4352D+07     EVAPOTRANSPIRATION =          16838.84
           STREAMFLOW =        7.0116D+07             STREAMFLOW =           7454.20
     GW BOUNDARY FLOW =          51773.82       GW BOUNDARY FLOW =             24.03

   INFLOWS - OUTFLOWS =       -1.1005D+07     INFLOWS - OUTFLOWS =         -24313.17
             --------                                   --------

 TOTAL STORAGE CHANGE =       -1.3802D+07         STORAGE CHANGE =         -24310.30
       --------------                             --------------
         LAND SURFACE =          22241.70           LAND SURFACE =           -699.89
            SOIL ZONE =         353520.98              SOIL ZONE =          -9292.72
     UNSATURATED ZONE =        -384734.94       UNSATURATED ZONE =          -7933.04
       SATURATED ZONE =       -1.3794D+07         SATURATED ZONE =          -6385.16

 OVERALL BUDGET ERROR =        2797149.62           BUDGET ERROR =             -2.88


  PERCENT DISCREPANCY =              1.92    PERCENT DISCREPANCY =             -0.01



1
 SUMMARY VOLUMETRIC BUDGET FOR GSFLOW 
 DATE: 10 08 1995              CUMULATIVE TIME STEP:       8
 MODFLOW STRESS PERIOD     62     CURRENT TIME STEP:    1834     ITERATIONS:       6

 -----------------------------------------------------------------------------------

   CUMULATIVE VOLUMES               L**3   RATES FOR THIS TIME STEP           L**3/T
   ------------------                      ------------------------

                                     IN                                         IN
                                     --                                         --
        PRECIPITATION =        1.3351D+08          PRECIPITATION =                  
           STREAMFLOW =                               STREAMFLOW =                  
     GW BOUNDARY FLOW =           5777.77       GW BOUNDARY FLOW =              3.97


                                    OUT                                        OUT
                                    ---                                        ---
   EVAPOTRANSPIRATION =        7.4475D+07     EVAPOTRANSPIRATION =          15535.80
           STREAMFLOW =        7.0167D+07             STREAMFLOW =           7355.23
     GW BOUNDARY FLOW =          51941.93       GW BOUNDARY FLOW =             24.03

   INFLOWS - OUTFLOWS =       -1.1179D+07     INFLOWS - OUTFLOWS =         -22911.09
             --------                                   --------

 TOTAL STORAGE CHANGE =       -1.3977D+07         STORAGE CHANGE =         -22907.59
       --------------                             --------------
         LAND SURFACE =          18179.46           LAND SURFACE =           -628.45
            SOIL ZONE =         285571.38              SOIL ZONE =          -8236.58
     UNSATURATED ZONE =        -438822.68       UNSATURATED ZONE =          -7337.61
       SATURATED ZONE =       -1.3842D+07         SATURATED ZONE =          -6705.47

 OVERALL BUDGET ERROR =        2797112.89           BUDGET ERROR =             -3.49


  PERCENT DISCREPANCY =              1.91    PERCENT DISCREPANCY =             -0.02



1
 SUMMARY VOLUMETRIC BUDGET FOR GSFLOW 
 DATE: 10 15 1995              CUMULATIVE TIME STEP:      15
 MODFLOW STRESS PERIOD     62     CURRENT TIME STEP:    1841     ITERATIONS:       5

 -----------------------------------------------------------------------------------

   CUMULATIVE VOLUMES               L**3   RATES FOR THIS TIME STEP           L**3/T
   ------------------                      ------------------------

                                     IN                                         IN
                                     --                                         --
        PRECIPITATION =        1.3351D+08          PRECIPITATION =                  
           STREAMFLOW =                               STREAMFLOW =                  
     GW BOUNDARY FLOW =           5805.85       GW BOUNDARY FLOW =              4.04


                                    OUT                                        OUT
                                    ---                                        ---
   EVAPOTRANSPIRATION =        7.4591D+07     EVAPOTRANSPIRATION =          18136.92
           STREAMFLOW =        7.0217D+07             STREAMFLOW =           6943.44
     GW BOUNDARY FLOW =          52110.01       GW BOUNDARY FLOW =             24.00

   INFLOWS - OUTFLOWS =       -1.1346D+07     INFLOWS - OUTFLOWS =         -25100.31
             --------                                   --------

 TOTAL STORAGE CHANGE =       -1.4143D+07         STORAGE CHANGE =         -25095.52
       --------------                             --------------
         LAND SURFACE =          14037.99           LAND SURFACE =           -696.58
            SOIL ZONE =         224354.07              SOIL ZONE =          -9356.09
     UNSATURATED ZONE =        -487982.93       UNSATURATED ZONE =          -6924.10
       SATURATED ZONE =       -1.3894D+07         SATURATED ZONE =          -8119.26

 OVERALL BUDGET ERROR =        2797070.13           BUDGET ERROR =             -4.79


  PERCENT DISCREPANCY =              1.91    PERCENT DISCREPANCY =             -0.02



1
 SUMMARY VOLUMETRIC BUDGET FOR GSFLOW 
 DATE: 10 22 1995              CUMULATIVE TIME STEP:      22
 MODFLOW STRESS PERIOD     62     CURRENT TIME STEP:    1848     ITERATIONS:      16

 -----------------------------------------------------------------------------------

   CUMULATIVE VOLUMES               L**3   RATES FOR THIS TIME STEP           L**3/T
   ------------------                      ------------------------

                                     IN                                         IN
                                     --                                         --
        PRECIPITATION =        1.3351D+08          PRECIPITATION =                  
           STREAMFLOW =                               STREAMFLOW =                  
     GW BOUNDARY FLOW =           5834.39       GW BOUNDARY FLOW =              4.10


                                    OUT                                        OUT
                                    ---                                        ---
   EVAPOTRANSPIRATION =        7.4695D+07     EVAPOTRANSPIRATION =           4718.58
           STREAMFLOW =        7.0267D+07             STREAMFLOW =           8108.18
     GW BOUNDARY FLOW =          52278.11       GW BOUNDARY FLOW =             24.10

   INFLOWS - OUTFLOWS =       -1.1500D+07     INFLOWS - OUTFLOWS =         -12846.77
             --------                                   --------

 TOTAL STORAGE CHANGE =       -1.4297D+07         STORAGE CHANGE =         -12847.08
       --------------                             --------------
         LAND SURFACE =          10452.80           LAND SURFACE =             -6.45
            SOIL ZONE =         172804.18              SOIL ZONE =          -2086.22
     UNSATURATED ZONE =        -533537.75       UNSATURATED ZONE =          -6047.49
       SATURATED ZONE =       -1.3947D+07         SATURATED ZONE =          -4707.43

 OVERALL BUDGET ERROR =        2797032.77           BUDGET ERROR =              0.32


  PERCENT DISCREPANCY =              1.91    PERCENT DISCREPANCY =              0.00



1
 SUMMARY VOLUMETRIC BUDGET FOR GSFLOW 
 DATE: 10 29 1995              CUMULATIVE TIME STEP:      29
 MODFLOW STRESS PERIOD     62     CURRENT TIME STEP:    1855     ITERATIONS:       6

 -----------------------------------------------------------------------------------

   CUMULATIVE VOLUMES               L**3   RATES FOR THIS TIME STEP           L**3/T
   ------------------                      ------------------------

                                     IN                                         IN
                                     --                                         --
        PRECIPITATION =        1.3351D+08          PRECIPITATION =                  
           STREAMFLOW =                               STREAMFLOW =                  
     GW BOUNDARY FLOW =           5863.35       GW BOUNDARY FLOW =              4.17


                                    OUT                                        OUT
                                    ---                                        ---
   EVAPOTRANSPIRATION =        7.4761D+07     EVAPOTRANSPIRATION =          11361.36
           STREAMFLOW =        7.0321D+07             STREAMFLOW =           7447.47
     GW BOUNDARY FLOW =          52446.64       GW BOUNDARY FLOW =             24.05

   INFLOWS - OUTFLOWS =       -1.1620D+07     INFLOWS - OUTFLOWS =         -18828.71
             --------                                   --------

 TOTAL STORAGE CHANGE =       -1.4417D+07         STORAGE CHANGE =         -18825.64
       --------------                             --------------
         LAND SURFACE =           9254.99           LAND SURFACE =           -359.13
            SOIL ZONE =         142443.40              SOIL ZONE =          -5088.26
     UNSATURATED ZONE =        -576749.46       UNSATURATED ZONE =          -6197.01
       SATURATED ZONE =       -1.3992D+07         SATURATED ZONE =          -7181.74

 OVERALL BUDGET ERROR =        2797015.87           BUDGET ERROR =             -3.07


  PERCENT DISCREPANCY =              1.91    PERCENT DISCREPANCY =             -0.02



