==========================================================================
Command line: 
..\..\..\bin\gsflow.exe  .\Sagehen_ponds.control

number of command line words: 2

Executable: ..\..\..\bin\gsflow.exe

==========================================================================
Control File: .\Sagehen_ponds.control
==========================================================================


               Precipitation-Runoff Modeling System (PRMS)
                       Version 6.0.0 09/01/2024

                            MODFLOW-NWT-SWR1 
  U.S. GEOLOGICAL SURVEY MODULAR FINITE-DIFFERENCE GROUNDWATER-FLOW MODEL
                         WITH NEWTON FORMULATION
                         Version 1.3.0 06/01/2022
              BASED ON MODFLOW-2005 Version 1.12.0 02/03/2017
                      SWR1 Version 1.04.0 09/15/2016


Execution start date and time (yyyy/mm/dd hh:mm:ss) 2024/09/24 11:44:21


==========================================================================
Please give careful consideration to fixing all ERROR and WARNING messages
==========================================================================


--------------------------------------------------------------------
    Active modules listed in the order in which they are called
--------------------------------------------------------------------
        Process                    Module         Version Date
==============================================================
PRMS Computation Order          gsflow_prms         2024-09-01
Read Control File               read_control_file   2024-08-01
Read Parameter File             read_parameter_file 2024-08-27
Read Data File                  read_data_file      2023-06-02
Basin Definition                basin               2024-08-09
Cascading Flow                  cascade             2023-11-01
Common States and Fluxes        climateflow         2024-08-09
Potential Solar Radiation       soltab              2024-01-22
Time Series Data                obs                 2023-11-01
Timestep Control                prms_time           2023-11-01
Temperature Distribution        temp_1sta           2023-11-01
Precipitation Distribution      precip_1sta         2024-04-30
Solar Radiation Distribution    ddsolrad            2023-10-04
Transpiration Distribution      transp_tindex       2023-11-01
Potential Evapotranspiration    potet_jh            2021-08-13
Canopy Interception             intcp               2024-04-04
Snow Dynamics                   snowcomp            2024-04-30
Surface Runoff                  srunoff_smidx       2024-04-04
Soilzone Computations           soilzone            2024-06-20
Soilzone Computations           soilzone_ag         2024-05-24
GSFLOW PRMS to MODFLOW          gsflow_prms2mf      2024-05-30
GSFLOW MODFLOW to PRMS          gsflow_mf2prms      2022-02-18
GSFLOW Output Budget Summary    gsflow_budget       2024-02-14
GSFLOW Output CSV Summary       gsflow_sum          2024-02-14
Output Summary                  nhru_summary        2024-04-04
Output Summary                  basin_summary       2021-08-13
Output Summary                  nsegment_summary    2023-11-01
==============================================================
GSFLOW MODFLOW main             gsflow_modflow      2024-06-01
==============================================================
MODFLOW Packages
==============================================================
UZF-NWT Package                 gwf2uzf1_NWT        2022-10-18
SFR-NWT Package                 gwf2sfr7_NWT        2022-10-18
AG-NWT Package                  gwf2ag1_NWT_ponds   2022-10-18
==============================================================


Steady state simulation successful, used 89 iterations

Writing PRMS Water Budget File: ..\output\prms\sagehen_HighKc.out
 Active HRUs:         3368    Inactive HRUs:         2241
 WARNING, ag_soil_moist_init_frac not specified, substituting soil_moist_init_fr
 ac
 WARNING, ag_soil_rechr_init_frac not specified, substituting soil_rechr_init_fr
 ac

 WARNING, pref_flow_infil_frac not specified, substituting pref_flow_den
 WARNING, ag_soil_type not specified, substituting soil_type
 WARNING, ag_covden_sum not specified, substituting covden_sum
 WARNING, ag_covden_win not specified, substituting covden_win
 WARNING, ag_soil2gw_max not specified, substituting soil2gw_max
  
 WARNING, parameter: ag_soil_rechr_init_frac is not specified
          Set to default value:  -1.000000    
 WARNING, parameter: ag_soil_moist_init_frac is not specified
          Set to default value:  -1.000000    
 WARNING, parameter: sro_to_dprst_imperv is not specified
          Set to default value:  0.2000000    
 WARNING, parameter: pref_flow_infil_frac is not specified
          Set to default value:  -1.000000    
 WARNING, parameter: cascade_min is not specified
          Set to default value:  1.0000000E-06
 WARNING, parameter: ag_soil_type is not specified
          Set to default value:          -1
 WARNING, parameter: ag_covden_sum is not specified
          Set to default value:  -1.000000    
 WARNING, parameter: ag_covden_win is not specified
          Set to default value:  -1.000000    
 WARNING, parameter: ag_soil2gw_max is not specified
          Set to default value:  -1.000000    

Simulation time period: 1990/10/01 - 1995/10/31

==========================================================================


 Run end date and time (yyyy/mm/dd hh:mm:ss): 2024/09/24 11:46:28
 Elapsed run time: 2 Minutes, 7.341 Seconds

 Number of time steps:   1857;  Number of non-convergence:   0
 MF iterations:         11551;  SZ iterations:           11527
 Average MF iterations:  6.22;  Average SZ iterations:    6.21
 Maximum MF iterations:    74;  Maximum SZ iterations:      50

mxsziter reached: 1

 Normal termination of simulation

