1
 SUMMARY VOLUMETRIC BUDGET FOR GSFLOW 
 DATE: 10 07 1990              CUMULATIVE TIME STEP:       7
 MODFLOW STRESS PERIOD      2     CURRENT TIME STEP:       7     ITERATIONS:       7

 -----------------------------------------------------------------------------------

   CUMULATIVE VOLUMES               L**3   RATES FOR THIS TIME STEP           L**3/T
   ------------------                      ------------------------

                                     IN                                         IN
                                     --                                         --
        PRECIPITATION =                            PRECIPITATION =                  
           STREAMFLOW =                               STREAMFLOW =                  
     GW BOUNDARY FLOW =                         GW BOUNDARY FLOW =                  


                                    OUT                                        OUT
                                    ---                                        ---
   EVAPOTRANSPIRATION =         385031.63     EVAPOTRANSPIRATION =          11801.34
           STREAMFLOW =          45661.61             STREAMFLOW =           8128.74
     GW BOUNDARY FLOW =            252.78       GW BOUNDARY FLOW =             36.30

   INFLOWS - OUTFLOWS =        -430946.01     INFLOWS - OUTFLOWS =         -19966.38
             --------                                   --------

 TOTAL STORAGE CHANGE =        -429355.10         STORAGE CHANGE =         -19938.35
       --------------                             --------------
         LAND SURFACE =                             LAND SURFACE =                  
            SOIL ZONE =         -33384.03              SOIL ZONE =           -943.80
     UNSATURATED ZONE =        -502794.45       UNSATURATED ZONE =         -33592.86
       SATURATED ZONE =         106823.38         SATURATED ZONE =          14598.31

 OVERALL BUDGET ERROR =          -1590.91           BUDGET ERROR =            -28.04


  PERCENT DISCREPANCY =             -0.37    PERCENT DISCREPANCY =             -0.14



1
 SUMMARY VOLUMETRIC BUDGET FOR GSFLOW 
 DATE: 10 14 1990              CUMULATIVE TIME STEP:      14
 MODFLOW STRESS PERIOD      2     CURRENT TIME STEP:      14     ITERATIONS:       6

 -----------------------------------------------------------------------------------

   CUMULATIVE VOLUMES               L**3   RATES FOR THIS TIME STEP           L**3/T
   ------------------                      ------------------------

                                     IN                                         IN
                                     --                                         --
        PRECIPITATION =                            PRECIPITATION =                  
           STREAMFLOW =                               STREAMFLOW =                  
     GW BOUNDARY FLOW =                         GW BOUNDARY FLOW =                  


                                    OUT                                        OUT
                                    ---                                        ---
   EVAPOTRANSPIRATION =         665235.67     EVAPOTRANSPIRATION =          42298.13
           STREAMFLOW =         100376.39             STREAMFLOW =           7413.80
     GW BOUNDARY FLOW =            506.61       GW BOUNDARY FLOW =             36.24

   INFLOWS - OUTFLOWS =        -766118.67     INFLOWS - OUTFLOWS =         -49748.17
             --------                                   --------

 TOTAL STORAGE CHANGE =        -764154.83         STORAGE CHANGE =         -49710.99
       --------------                             --------------
         LAND SURFACE =                             LAND SURFACE =                  
            SOIL ZONE =         -58194.84              SOIL ZONE =          -4382.18
     UNSATURATED ZONE =        -877795.92       UNSATURATED ZONE =         -52080.87
       SATURATED ZONE =         171835.92         SATURATED ZONE =           6752.05

 OVERALL BUDGET ERROR =          -1963.85           BUDGET ERROR =            -37.18


  PERCENT DISCREPANCY =             -0.26    PERCENT DISCREPANCY =             -0.07



1
 SUMMARY VOLUMETRIC BUDGET FOR GSFLOW 
 DATE: 10 21 1990              CUMULATIVE TIME STEP:      21
 MODFLOW STRESS PERIOD      2     CURRENT TIME STEP:      21     ITERATIONS:       6

 -----------------------------------------------------------------------------------

   CUMULATIVE VOLUMES               L**3   RATES FOR THIS TIME STEP           L**3/T
   ------------------                      ------------------------

                                     IN                                         IN
                                     --                                         --
        PRECIPITATION =         188432.87          PRECIPITATION =                  
           STREAMFLOW =                               STREAMFLOW =                  
     GW BOUNDARY FLOW =                         GW BOUNDARY FLOW =                  


                                    OUT                                        OUT
                                    ---                                        ---
   EVAPOTRANSPIRATION =         815639.35     EVAPOTRANSPIRATION =          41834.63
           STREAMFLOW =         163138.74             STREAMFLOW =          10141.42
     GW BOUNDARY FLOW =            760.80       GW BOUNDARY FLOW =             36.37

   INFLOWS - OUTFLOWS =        -791106.02     INFLOWS - OUTFLOWS =         -52012.42
             --------                                   --------

 TOTAL STORAGE CHANGE =        -790349.22         STORAGE CHANGE =         -52020.63
       --------------                             --------------
         LAND SURFACE =          18885.57           LAND SURFACE =         -43558.49
            SOIL ZONE =          47305.10              SOIL ZONE =           2013.87
     UNSATURATED ZONE =       -1091630.01       UNSATURATED ZONE =         -21396.92
       SATURATED ZONE =         235090.12         SATURATED ZONE =          10920.90

 OVERALL BUDGET ERROR =           -756.80           BUDGET ERROR =              8.20


  PERCENT DISCREPANCY =             -0.08    PERCENT DISCREPANCY =              0.02



1
 SUMMARY VOLUMETRIC BUDGET FOR GSFLOW 
 DATE: 10 28 1990              CUMULATIVE TIME STEP:      28
 MODFLOW STRESS PERIOD      2     CURRENT TIME STEP:      28     ITERATIONS:       6

 -----------------------------------------------------------------------------------

   CUMULATIVE VOLUMES               L**3   RATES FOR THIS TIME STEP           L**3/T
   ------------------                      ------------------------

                                     IN                                         IN
                                     --                                         --
        PRECIPITATION =         188432.87          PRECIPITATION =                  
           STREAMFLOW =                               STREAMFLOW =                  
     GW BOUNDARY FLOW =                         GW BOUNDARY FLOW =                  


                                    OUT                                        OUT
                                    ---                                        ---
   EVAPOTRANSPIRATION =         944459.90     EVAPOTRANSPIRATION =          11826.69
           STREAMFLOW =         224511.87             STREAMFLOW =           8913.88
     GW BOUNDARY FLOW =           1013.98       GW BOUNDARY FLOW =             36.12

   INFLOWS - OUTFLOWS =        -981552.88     INFLOWS - OUTFLOWS =         -20776.70
             --------                                   --------

 TOTAL STORAGE CHANGE =        -980732.62         STORAGE CHANGE =         -20766.57
       --------------                             --------------
         LAND SURFACE =                             LAND SURFACE =                  
            SOIL ZONE =          18260.77              SOIL ZONE =          -3430.25
     UNSATURATED ZONE =       -1275180.06       UNSATURATED ZONE =         -23225.97
       SATURATED ZONE =         276186.66         SATURATED ZONE =           5889.65

 OVERALL BUDGET ERROR =           -820.26           BUDGET ERROR =            -10.13


  PERCENT DISCREPANCY =             -0.07    PERCENT DISCREPANCY =             -0.05



1
 SUMMARY VOLUMETRIC BUDGET FOR GSFLOW 
 DATE: 11 04 1990              CUMULATIVE TIME STEP:       4
 MODFLOW STRESS PERIOD      3     CURRENT TIME STEP:      35     ITERATIONS:       6

 -----------------------------------------------------------------------------------

   CUMULATIVE VOLUMES               L**3   RATES FOR THIS TIME STEP           L**3/T
   ------------------                      ------------------------

                                     IN                                         IN
                                     --                                         --
        PRECIPITATION =         703113.06          PRECIPITATION =                  
           STREAMFLOW =                               STREAMFLOW =                  
     GW BOUNDARY FLOW =                         GW BOUNDARY FLOW =                  


                                    OUT                                        OUT
                                    ---                                        ---
   EVAPOTRANSPIRATION =        1005153.94     EVAPOTRANSPIRATION =          26357.54
           STREAMFLOW =         295044.81             STREAMFLOW =          10632.28
     GW BOUNDARY FLOW =           1267.03       GW BOUNDARY FLOW =             36.14

   INFLOWS - OUTFLOWS =        -598352.72     INFLOWS - OUTFLOWS =         -37025.96
             --------                                   --------

 TOTAL STORAGE CHANGE =        -602713.52         STORAGE CHANGE =         -38317.39
       --------------                             --------------
         LAND SURFACE =         132159.65           LAND SURFACE =        -160480.33
            SOIL ZONE =         349909.91              SOIL ZONE =         132879.93
     UNSATURATED ZONE =       -1420693.01       UNSATURATED ZONE =         -20070.11
       SATURATED ZONE =         335909.92         SATURATED ZONE =           9353.12

 OVERALL BUDGET ERROR =           4360.80           BUDGET ERROR =           1291.43

  ***WARNING, FLUX RATES OFF > 3%

  PERCENT DISCREPANCY =              0.33    PERCENT DISCREPANCY =              3.43



1
 SUMMARY VOLUMETRIC BUDGET FOR GSFLOW 
 DATE: 11 11 1990              CUMULATIVE TIME STEP:      11
 MODFLOW STRESS PERIOD      3     CURRENT TIME STEP:      42     ITERATIONS:       6

 -----------------------------------------------------------------------------------

   CUMULATIVE VOLUMES               L**3   RATES FOR THIS TIME STEP           L**3/T
   ------------------                      ------------------------

                                     IN                                         IN
                                     --                                         --
        PRECIPITATION =         703113.06          PRECIPITATION =                  
           STREAMFLOW =                               STREAMFLOW =                  
     GW BOUNDARY FLOW =                         GW BOUNDARY FLOW =                  


                                    OUT                                        OUT
                                    ---                                        ---
   EVAPOTRANSPIRATION =        1082561.66     EVAPOTRANSPIRATION =          12156.63
           STREAMFLOW =         366075.64             STREAMFLOW =           9638.74
     GW BOUNDARY FLOW =           1519.13       GW BOUNDARY FLOW =             35.92

   INFLOWS - OUTFLOWS =        -747043.37     INFLOWS - OUTFLOWS =         -21831.29
             --------                                   --------

 TOTAL STORAGE CHANGE =        -751570.51         STORAGE CHANGE =         -21827.73
       --------------                             --------------
         LAND SURFACE =            595.09           LAND SURFACE =          -1416.54
            SOIL ZONE =         422044.01              SOIL ZONE =          -5448.89
     UNSATURATED ZONE =       -1559863.80       UNSATURATED ZONE =         -19858.13
       SATURATED ZONE =         385654.16         SATURATED ZONE =           4895.83

 OVERALL BUDGET ERROR =           4527.14           BUDGET ERROR =             -3.56


  PERCENT DISCREPANCY =              0.31    PERCENT DISCREPANCY =             -0.02



1
 SUMMARY VOLUMETRIC BUDGET FOR GSFLOW 
 DATE: 11 18 1990              CUMULATIVE TIME STEP:      18
 MODFLOW STRESS PERIOD      3     CURRENT TIME STEP:      49     ITERATIONS:       6

 -----------------------------------------------------------------------------------

   CUMULATIVE VOLUMES               L**3   RATES FOR THIS TIME STEP           L**3/T
   ------------------                      ------------------------

                                     IN                                         IN
                                     --                                         --
        PRECIPITATION =         747883.35          PRECIPITATION =                  
           STREAMFLOW =                               STREAMFLOW =                  
     GW BOUNDARY FLOW =                         GW BOUNDARY FLOW =                  


                                    OUT                                        OUT
                                    ---                                        ---
   EVAPOTRANSPIRATION =        1155124.24     EVAPOTRANSPIRATION =           5077.02
           STREAMFLOW =         437740.46             STREAMFLOW =          10662.65
     GW BOUNDARY FLOW =           1770.44       GW BOUNDARY FLOW =             35.88

   INFLOWS - OUTFLOWS =        -846751.79     INFLOWS - OUTFLOWS =         -15775.56
             --------                                   --------

 TOTAL STORAGE CHANGE =        -851302.08         STORAGE CHANGE =         -15784.61
       --------------                             --------------
         LAND SURFACE =           7868.08           LAND SURFACE =          -3691.47
            SOIL ZONE =         404074.16              SOIL ZONE =           -743.65
     UNSATURATED ZONE =       -1693039.85       UNSATURATED ZONE =         -18611.22
       SATURATED ZONE =         429795.48         SATURATED ZONE =           7261.72

 OVERALL BUDGET ERROR =           4550.29           BUDGET ERROR =              9.06


  PERCENT DISCREPANCY =              0.28    PERCENT DISCREPANCY =              0.06



1
 SUMMARY VOLUMETRIC BUDGET FOR GSFLOW 
 DATE: 11 25 1990              CUMULATIVE TIME STEP:      25
 MODFLOW STRESS PERIOD      3     CURRENT TIME STEP:      56     ITERATIONS:       6

 -----------------------------------------------------------------------------------

   CUMULATIVE VOLUMES               L**3   RATES FOR THIS TIME STEP           L**3/T
   ------------------                      ------------------------

                                     IN                                         IN
                                     --                                         --
        PRECIPITATION =        1009043.38          PRECIPITATION =         186542.88
           STREAMFLOW =                               STREAMFLOW =                  
     GW BOUNDARY FLOW =                         GW BOUNDARY FLOW =                  


                                    OUT                                        OUT
                                    ---                                        ---
   EVAPOTRANSPIRATION =        1215718.78     EVAPOTRANSPIRATION =           3754.37
           STREAMFLOW =         513684.91             STREAMFLOW =          10861.74
     GW BOUNDARY FLOW =           2021.39       GW BOUNDARY FLOW =             35.79

   INFLOWS - OUTFLOWS =        -722381.70     INFLOWS - OUTFLOWS =         171890.97
             --------                                   --------

 TOTAL STORAGE CHANGE =        -729157.29         STORAGE CHANGE =         169959.07
       --------------                             --------------
         LAND SURFACE =          86180.68           LAND SURFACE =          69567.13
            SOIL ZONE =         526114.19              SOIL ZONE =         112015.70
     UNSATURATED ZONE =       -1820643.84       UNSATURATED ZONE =         -17904.11
       SATURATED ZONE =         479191.62         SATURATED ZONE =           6280.34

 OVERALL BUDGET ERROR =           6775.59           BUDGET ERROR =           1931.90


  PERCENT DISCREPANCY =              0.39    PERCENT DISCREPANCY =              1.04



1
 SUMMARY VOLUMETRIC BUDGET FOR GSFLOW 
 DATE: 12 02 1990              CUMULATIVE TIME STEP:       2
 MODFLOW STRESS PERIOD      4     CURRENT TIME STEP:      63     ITERATIONS:       6

 -----------------------------------------------------------------------------------

   CUMULATIVE VOLUMES               L**3   RATES FOR THIS TIME STEP           L**3/T
   ------------------                      ------------------------

                                     IN                                         IN
                                     --                                         --
        PRECIPITATION =        1449284.55          PRECIPITATION =                  
           STREAMFLOW =                               STREAMFLOW =                  
     GW BOUNDARY FLOW =                         GW BOUNDARY FLOW =                  


                                    OUT                                        OUT
                                    ---                                        ---
   EVAPOTRANSPIRATION =        1222235.06     EVAPOTRANSPIRATION =            235.96
           STREAMFLOW =         590850.80             STREAMFLOW =          11064.81
     GW BOUNDARY FLOW =           2271.88       GW BOUNDARY FLOW =             35.77

   INFLOWS - OUTFLOWS =        -366073.18     INFLOWS - OUTFLOWS =         -11336.54
             --------                                   --------

 TOTAL STORAGE CHANGE =        -373984.31         STORAGE CHANGE =         -11345.58
       --------------                             --------------
         LAND SURFACE =         486845.62           LAND SURFACE =           -339.04
            SOIL ZONE =         558395.78              SOIL ZONE =            150.76
     UNSATURATED ZONE =       -1943486.47       UNSATURATED ZONE =         -17255.00
       SATURATED ZONE =         524260.68         SATURATED ZONE =           6097.70

 OVERALL BUDGET ERROR =           7911.12           BUDGET ERROR =              9.04


  PERCENT DISCREPANCY =              0.43    PERCENT DISCREPANCY =              0.08



1
 SUMMARY VOLUMETRIC BUDGET FOR GSFLOW 
 DATE: 12 09 1990              CUMULATIVE TIME STEP:       9
 MODFLOW STRESS PERIOD      4     CURRENT TIME STEP:      70     ITERATIONS:       6

 -----------------------------------------------------------------------------------

   CUMULATIVE VOLUMES               L**3   RATES FOR THIS TIME STEP           L**3/T
   ------------------                      ------------------------

                                     IN                                         IN
                                     --                                         --
        PRECIPITATION =        1449284.55          PRECIPITATION =                  
           STREAMFLOW =                               STREAMFLOW =                  
     GW BOUNDARY FLOW =                         GW BOUNDARY FLOW =                  


                                    OUT                                        OUT
                                    ---                                        ---
   EVAPOTRANSPIRATION =        1298303.12     EVAPOTRANSPIRATION =          13893.18
           STREAMFLOW =         668518.81             STREAMFLOW =          10910.54
     GW BOUNDARY FLOW =           2521.84       GW BOUNDARY FLOW =             35.65

   INFLOWS - OUTFLOWS =        -520059.21     INFLOWS - OUTFLOWS =         -24839.37
             --------                                   --------

 TOTAL STORAGE CHANGE =        -532552.49         STORAGE CHANGE =         -24961.48
       --------------                             --------------
         LAND SURFACE =          67215.40           LAND SURFACE =         -45889.70
            SOIL ZONE =         900825.60              SOIL ZONE =          33513.32
     UNSATURATED ZONE =       -2061344.86       UNSATURATED ZONE =         -16498.31
       SATURATED ZONE =         560751.25         SATURATED ZONE =           3913.20

 OVERALL BUDGET ERROR =          12493.27           BUDGET ERROR =            122.11


  PERCENT DISCREPANCY =              0.63    PERCENT DISCREPANCY =              0.49



1
 SUMMARY VOLUMETRIC BUDGET FOR GSFLOW 
 DATE: 12 16 1990              CUMULATIVE TIME STEP:      16
 MODFLOW STRESS PERIOD      4     CURRENT TIME STEP:      77     ITERATIONS:       5

 -----------------------------------------------------------------------------------

   CUMULATIVE VOLUMES               L**3   RATES FOR THIS TIME STEP           L**3/T
   ------------------                      ------------------------

                                     IN                                         IN
                                     --                                         --
        PRECIPITATION =        1804962.84          PRECIPITATION =                  
           STREAMFLOW =                               STREAMFLOW =                  
     GW BOUNDARY FLOW =                         GW BOUNDARY FLOW =                  


                                    OUT                                        OUT
                                    ---                                        ---
   EVAPOTRANSPIRATION =        1326631.58     EVAPOTRANSPIRATION =                  
           STREAMFLOW =         748132.72             STREAMFLOW =          11506.84
     GW BOUNDARY FLOW =           2771.25       GW BOUNDARY FLOW =             35.61

   INFLOWS - OUTFLOWS =        -272572.71     INFLOWS - OUTFLOWS =         -11542.45
             --------                                   --------

 TOTAL STORAGE CHANGE =        -287425.04         STORAGE CHANGE =         -11553.56
       --------------                             --------------
         LAND SURFACE =         252566.26           LAND SURFACE =                  
            SOIL ZONE =        1043227.30              SOIL ZONE =            -18.93
     UNSATURATED ZONE =       -2174685.88       UNSATURATED ZONE =         -15929.81
       SATURATED ZONE =         591467.12         SATURATED ZONE =           4395.17

 OVERALL BUDGET ERROR =          14852.33           BUDGET ERROR =             11.11


  PERCENT DISCREPANCY =              0.71    PERCENT DISCREPANCY =              0.10



1
 SUMMARY VOLUMETRIC BUDGET FOR GSFLOW 
 DATE: 12 23 1990              CUMULATIVE TIME STEP:      23
 MODFLOW STRESS PERIOD      4     CURRENT TIME STEP:      84     ITERATIONS:       6

 -----------------------------------------------------------------------------------

   CUMULATIVE VOLUMES               L**3   RATES FOR THIS TIME STEP           L**3/T
   ------------------                      ------------------------

                                     IN                                         IN
                                     --                                         --
        PRECIPITATION =        2276236.55          PRECIPITATION =                  
           STREAMFLOW =                               STREAMFLOW =                  
     GW BOUNDARY FLOW =              0.08       GW BOUNDARY FLOW =              0.04


                                    OUT                                        OUT
                                    ---                                        ---
   EVAPOTRANSPIRATION =        1327693.23     EVAPOTRANSPIRATION =                  
           STREAMFLOW =         828869.46             STREAMFLOW =          11557.93
     GW BOUNDARY FLOW =           3020.28       GW BOUNDARY FLOW =             35.57

   INFLOWS - OUTFLOWS =         116653.66     INFLOWS - OUTFLOWS =         -11593.46
             --------                                   --------

 TOTAL STORAGE CHANGE =         101732.92         STORAGE CHANGE =         -11602.91
       --------------                             --------------
         LAND SURFACE =         722784.33           LAND SURFACE =                  
            SOIL ZONE =        1043421.05              SOIL ZONE =             55.61
     UNSATURATED ZONE =       -2283883.62       UNSATURATED ZONE =         -15354.99
       SATURATED ZONE =         619410.96         SATURATED ZONE =           3696.47

 OVERALL BUDGET ERROR =          14920.74           BUDGET ERROR =              9.45


  PERCENT DISCREPANCY =              0.66    PERCENT DISCREPANCY =              0.08



1
 SUMMARY VOLUMETRIC BUDGET FOR GSFLOW 
 DATE: 12 30 1990              CUMULATIVE TIME STEP:      30
 MODFLOW STRESS PERIOD      4     CURRENT TIME STEP:      91     ITERATIONS:       5

 -----------------------------------------------------------------------------------

   CUMULATIVE VOLUMES               L**3   RATES FOR THIS TIME STEP           L**3/T
   ------------------                      ------------------------

                                     IN                                         IN
                                     --                                         --
        PRECIPITATION =        2276236.55          PRECIPITATION =                  
           STREAMFLOW =                               STREAMFLOW =                  
     GW BOUNDARY FLOW =              0.77       GW BOUNDARY FLOW =              0.14


                                    OUT                                        OUT
                                    ---                                        ---
   EVAPOTRANSPIRATION =        1328263.20     EVAPOTRANSPIRATION =                  
           STREAMFLOW =         910034.67             STREAMFLOW =          11625.39
     GW BOUNDARY FLOW =           3269.39       GW BOUNDARY FLOW =             35.60

   INFLOWS - OUTFLOWS =          34670.06     INFLOWS - OUTFLOWS =         -11660.85
             --------                                   --------

 TOTAL STORAGE CHANGE =          19691.89         STORAGE CHANGE =         -11668.41
       --------------                             --------------
         LAND SURFACE =         722216.94           LAND SURFACE =                  
            SOIL ZONE =        1044000.35              SOIL ZONE =            100.86
     UNSATURATED ZONE =       -2389168.36       UNSATURATED ZONE =         -14806.02
       SATURATED ZONE =         642642.73         SATURATED ZONE =           3036.74

 OVERALL BUDGET ERROR =          14978.18           BUDGET ERROR =              7.56


  PERCENT DISCREPANCY =              0.66    PERCENT DISCREPANCY =              0.06



1
 SUMMARY VOLUMETRIC BUDGET FOR GSFLOW 
 DATE: 01 06 1991              CUMULATIVE TIME STEP:       6
 MODFLOW STRESS PERIOD      5     CURRENT TIME STEP:      98     ITERATIONS:       5

 -----------------------------------------------------------------------------------

   CUMULATIVE VOLUMES               L**3   RATES FOR THIS TIME STEP           L**3/T
   ------------------                      ------------------------

                                     IN                                         IN
                                     --                                         --
        PRECIPITATION =        2276236.55          PRECIPITATION =                  
           STREAMFLOW =                               STREAMFLOW =                  
     GW BOUNDARY FLOW =              2.09       GW BOUNDARY FLOW =              0.22


                                    OUT                                        OUT
                                    ---                                        ---
   EVAPOTRANSPIRATION =        1355338.73     EVAPOTRANSPIRATION =           3189.43
           STREAMFLOW =         991866.86             STREAMFLOW =          11731.60
     GW BOUNDARY FLOW =           3519.27       GW BOUNDARY FLOW =             35.75

   INFLOWS - OUTFLOWS =         -74486.23     INFLOWS - OUTFLOWS =         -14956.56
             --------                                   --------

 TOTAL STORAGE CHANGE =         -92101.67         STORAGE CHANGE =         -15094.46
       --------------                             --------------
         LAND SURFACE =         592099.75           LAND SURFACE =          -8106.31
            SOIL ZONE =        1145218.96              SOIL ZONE =           4886.72
     UNSATURATED ZONE =       -2490515.40       UNSATURATED ZONE =         -14245.77
       SATURATED ZONE =         661094.75         SATURATED ZONE =           2370.89

 OVERALL BUDGET ERROR =          17615.44           BUDGET ERROR =            137.89


  PERCENT DISCREPANCY =              0.75    PERCENT DISCREPANCY =              0.92



1
 SUMMARY VOLUMETRIC BUDGET FOR GSFLOW 
 DATE: 01 13 1991              CUMULATIVE TIME STEP:      13
 MODFLOW STRESS PERIOD      5     CURRENT TIME STEP:     105     ITERATIONS:       6

 -----------------------------------------------------------------------------------

   CUMULATIVE VOLUMES               L**3   RATES FOR THIS TIME STEP           L**3/T
   ------------------                      ------------------------

                                     IN                                         IN
                                     --                                         --
        PRECIPITATION =        2596386.94          PRECIPITATION =          10327.43
           STREAMFLOW =                               STREAMFLOW =                  
     GW BOUNDARY FLOW =              4.01       GW BOUNDARY FLOW =              0.31


                                    OUT                                        OUT
                                    ---                                        ---
   EVAPOTRANSPIRATION =        1422269.76     EVAPOTRANSPIRATION =          18640.51
           STREAMFLOW =        1074120.86             STREAMFLOW =          11725.73
     GW BOUNDARY FLOW =           3769.50       GW BOUNDARY FLOW =             35.73

   INFLOWS - OUTFLOWS =          96230.84     INFLOWS - OUTFLOWS =         -20074.23
             --------                                   --------

 TOTAL STORAGE CHANGE =          73473.42         STORAGE CHANGE =         -21345.86
       --------------                             --------------
         LAND SURFACE =         529885.03           LAND SURFACE =        -135264.70
            SOIL ZONE =        1457482.35              SOIL ZONE =         126487.52
     UNSATURATED ZONE =       -2587800.75       UNSATURATED ZONE =         -13692.10
       SATURATED ZONE =         673906.46         SATURATED ZONE =           1123.42

 OVERALL BUDGET ERROR =          22757.42           BUDGET ERROR =           1271.63

  ***WARNING, FLUX RATES OFF > 3%

  PERCENT DISCREPANCY =              0.88    PERCENT DISCREPANCY =              4.10



1
 SUMMARY VOLUMETRIC BUDGET FOR GSFLOW 
 DATE: 01 20 1991              CUMULATIVE TIME STEP:      20
 MODFLOW STRESS PERIOD      5     CURRENT TIME STEP:     112     ITERATIONS:       5

 -----------------------------------------------------------------------------------

   CUMULATIVE VOLUMES               L**3   RATES FOR THIS TIME STEP           L**3/T
   ------------------                      ------------------------

                                     IN                                         IN
                                     --                                         --
        PRECIPITATION =        2596386.94          PRECIPITATION =                  
           STREAMFLOW =                               STREAMFLOW =                  
     GW BOUNDARY FLOW =              6.54       GW BOUNDARY FLOW =              0.40


                                    OUT                                        OUT
                                    ---                                        ---
   EVAPOTRANSPIRATION =        1499570.87     EVAPOTRANSPIRATION =           2459.80
           STREAMFLOW =        1157208.09             STREAMFLOW =          11891.37
     GW BOUNDARY FLOW =           4019.75       GW BOUNDARY FLOW =             35.75

   INFLOWS - OUTFLOWS =         -64405.22     INFLOWS - OUTFLOWS =         -14386.52
             --------                                   --------

 TOTAL STORAGE CHANGE =         -88177.95         STORAGE CHANGE =         -14390.35
       --------------                             --------------
         LAND SURFACE =         356897.54           LAND SURFACE =           -433.81
            SOIL ZONE =        1553070.41              SOIL ZONE =          -1962.90
     UNSATURATED ZONE =       -2681218.27       UNSATURATED ZONE =         -13122.96
       SATURATED ZONE =         683071.98         SATURATED ZONE =           1129.31

 OVERALL BUDGET ERROR =          23772.73           BUDGET ERROR =              3.83


  PERCENT DISCREPANCY =              0.89    PERCENT DISCREPANCY =              0.03



1
 SUMMARY VOLUMETRIC BUDGET FOR GSFLOW 
 DATE: 01 27 1991              CUMULATIVE TIME STEP:      27
 MODFLOW STRESS PERIOD      5     CURRENT TIME STEP:     119     ITERATIONS:       5

 -----------------------------------------------------------------------------------

   CUMULATIVE VOLUMES               L**3   RATES FOR THIS TIME STEP           L**3/T
   ------------------                      ------------------------

                                     IN                                         IN
                                     --                                         --
        PRECIPITATION =        2596386.94          PRECIPITATION =                  
           STREAMFLOW =                               STREAMFLOW =                  
     GW BOUNDARY FLOW =              9.65       GW BOUNDARY FLOW =              0.48


                                    OUT                                        OUT
                                    ---                                        ---
   EVAPOTRANSPIRATION =        1525463.35     EVAPOTRANSPIRATION =           1702.75
           STREAMFLOW =        1240461.74             STREAMFLOW =          11917.07
     GW BOUNDARY FLOW =           4269.96       GW BOUNDARY FLOW =             35.74

   INFLOWS - OUTFLOWS =        -173798.46     INFLOWS - OUTFLOWS =         -13655.08
             --------                                   --------

 TOTAL STORAGE CHANGE =        -197814.78         STORAGE CHANGE =         -13665.44
       --------------                             --------------
         LAND SURFACE =         323033.01           LAND SURFACE =           -547.84
            SOIL ZONE =        1561719.01              SOIL ZONE =          -1066.23
     UNSATURATED ZONE =       -2771137.90       UNSATURATED ZONE =         -12627.80
       SATURATED ZONE =         688570.65         SATURATED ZONE =            576.43

 OVERALL BUDGET ERROR =          24016.32           BUDGET ERROR =             10.36


  PERCENT DISCREPANCY =              0.86    PERCENT DISCREPANCY =              0.08



1
 SUMMARY VOLUMETRIC BUDGET FOR GSFLOW 
 DATE: 02 03 1991              CUMULATIVE TIME STEP:       3
 MODFLOW STRESS PERIOD      6     CURRENT TIME STEP:     126     ITERATIONS:       6

 -----------------------------------------------------------------------------------

   CUMULATIVE VOLUMES               L**3   RATES FOR THIS TIME STEP           L**3/T
   ------------------                      ------------------------

                                     IN                                         IN
                                     --                                         --
        PRECIPITATION =        3228422.31          PRECIPITATION =          30459.53
           STREAMFLOW =                               STREAMFLOW =                  
     GW BOUNDARY FLOW =             13.30       GW BOUNDARY FLOW =              0.55


                                    OUT                                        OUT
                                    ---                                        ---
   EVAPOTRANSPIRATION =        1632477.03     EVAPOTRANSPIRATION =          21403.91
           STREAMFLOW =        1325245.98             STREAMFLOW =          12218.37
     GW BOUNDARY FLOW =           4520.08       GW BOUNDARY FLOW =             35.74

   INFLOWS - OUTFLOWS =         266192.52     INFLOWS - OUTFLOWS =          -3197.93
             --------                                   --------

 TOTAL STORAGE CHANGE =         234940.09         STORAGE CHANGE =          -3478.35
       --------------                             --------------
         LAND SURFACE =         157683.43           LAND SURFACE =         -26376.35
            SOIL ZONE =        2245250.15              SOIL ZONE =          35088.15
     UNSATURATED ZONE =       -2857744.15       UNSATURATED ZONE =         -12194.25
       SATURATED ZONE =         689750.15         SATURATED ZONE =              4.08

 OVERALL BUDGET ERROR =          31252.43           BUDGET ERROR =            280.42


  PERCENT DISCREPANCY =              0.97    PERCENT DISCREPANCY =              0.83



1
 SUMMARY VOLUMETRIC BUDGET FOR GSFLOW 
 DATE: 02 10 1991              CUMULATIVE TIME STEP:      10
 MODFLOW STRESS PERIOD      6     CURRENT TIME STEP:     133     ITERATIONS:       5

 -----------------------------------------------------------------------------------

   CUMULATIVE VOLUMES               L**3   RATES FOR THIS TIME STEP           L**3/T
   ------------------                      ------------------------

                                     IN                                         IN
                                     --                                         --
        PRECIPITATION =        3510173.01          PRECIPITATION =                  
           STREAMFLOW =                               STREAMFLOW =                  
     GW BOUNDARY FLOW =             17.48       GW BOUNDARY FLOW =              0.63


                                    OUT                                        OUT
                                    ---                                        ---
   EVAPOTRANSPIRATION =        1800142.88     EVAPOTRANSPIRATION =          25663.26
           STREAMFLOW =        1411169.93             STREAMFLOW =          12140.83
     GW BOUNDARY FLOW =           4770.16       GW BOUNDARY FLOW =             35.72

   INFLOWS - OUTFLOWS =         294107.51     INFLOWS - OUTFLOWS =         -37839.19
             --------                                   --------

 TOTAL STORAGE CHANGE =         259853.57         STORAGE CHANGE =         -37786.58
       --------------                             --------------
         LAND SURFACE =          75877.11           LAND SURFACE =          -8469.89
            SOIL ZONE =        2437143.22              SOIL ZONE =         -17105.20
     UNSATURATED ZONE =       -2940933.65       UNSATURATED ZONE =         -11690.37
       SATURATED ZONE =         687766.29         SATURATED ZONE =           -521.13

 OVERALL BUDGET ERROR =          34253.94           BUDGET ERROR =            -52.61


  PERCENT DISCREPANCY =              0.98    PERCENT DISCREPANCY =             -0.14



1
 SUMMARY VOLUMETRIC BUDGET FOR GSFLOW 
 DATE: 02 17 1991              CUMULATIVE TIME STEP:      17
 MODFLOW STRESS PERIOD      6     CURRENT TIME STEP:     140     ITERATIONS:       5

 -----------------------------------------------------------------------------------

   CUMULATIVE VOLUMES               L**3   RATES FOR THIS TIME STEP           L**3/T
   ------------------                      ------------------------

                                     IN                                         IN
                                     --                                         --
        PRECIPITATION =        3510173.01          PRECIPITATION =                  
           STREAMFLOW =                               STREAMFLOW =                  
     GW BOUNDARY FLOW =             22.15       GW BOUNDARY FLOW =              0.70


                                    OUT                                        OUT
                                    ---                                        ---
   EVAPOTRANSPIRATION =        2043175.86     EVAPOTRANSPIRATION =          23705.65
           STREAMFLOW =        1495739.02             STREAMFLOW =          12083.99
     GW BOUNDARY FLOW =           5020.09       GW BOUNDARY FLOW =             35.68

   INFLOWS - OUTFLOWS =         -33739.81     INFLOWS - OUTFLOWS =         -35824.62
             --------                                   --------

 TOTAL STORAGE CHANGE =         -67340.70         STORAGE CHANGE =         -35744.73
       --------------                             --------------
         LAND SURFACE =          17890.99           LAND SURFACE =          -1143.67
            SOIL ZONE =        2253405.15              SOIL ZONE =         -22470.74
     UNSATURATED ZONE =       -3020560.39       UNSATURATED ZONE =         -11090.76
       SATURATED ZONE =         681922.87         SATURATED ZONE =          -1039.57

 OVERALL BUDGET ERROR =          33600.89           BUDGET ERROR =            -79.89


  PERCENT DISCREPANCY =              0.94    PERCENT DISCREPANCY =             -0.22



1
 SUMMARY VOLUMETRIC BUDGET FOR GSFLOW 
 DATE: 02 24 1991              CUMULATIVE TIME STEP:      24
 MODFLOW STRESS PERIOD      6     CURRENT TIME STEP:     147     ITERATIONS:       5

 -----------------------------------------------------------------------------------

   CUMULATIVE VOLUMES               L**3   RATES FOR THIS TIME STEP           L**3/T
   ------------------                      ------------------------

                                     IN                                         IN
                                     --                                         --
        PRECIPITATION =        3510173.01          PRECIPITATION =                  
           STREAMFLOW =                               STREAMFLOW =                  
     GW BOUNDARY FLOW =             27.30       GW BOUNDARY FLOW =              0.76


                                    OUT                                        OUT
                                    ---                                        ---
   EVAPOTRANSPIRATION =        2256616.43     EVAPOTRANSPIRATION =          21630.12
           STREAMFLOW =        1579897.72             STREAMFLOW =          11996.68
     GW BOUNDARY FLOW =           5269.12       GW BOUNDARY FLOW =             35.48

   INFLOWS - OUTFLOWS =        -331582.96     INFLOWS - OUTFLOWS =         -33661.52
             --------                                   --------

 TOTAL STORAGE CHANGE =        -364458.99         STORAGE CHANGE =         -33585.43
       --------------                             --------------
         LAND SURFACE =           7435.72           LAND SURFACE =           -217.69
            SOIL ZONE =        2052172.14              SOIL ZONE =         -21120.41
     UNSATURATED ZONE =       -3096545.01       UNSATURATED ZONE =         -10680.56
       SATURATED ZONE =         672477.38         SATURATED ZONE =          -1566.77

 OVERALL BUDGET ERROR =          32876.04           BUDGET ERROR =            -76.09


  PERCENT DISCREPANCY =              0.85    PERCENT DISCREPANCY =             -0.23



1
 SUMMARY VOLUMETRIC BUDGET FOR GSFLOW 
 DATE: 03 03 1991              CUMULATIVE TIME STEP:       3
 MODFLOW STRESS PERIOD      7     CURRENT TIME STEP:     154     ITERATIONS:       5

 -----------------------------------------------------------------------------------

   CUMULATIVE VOLUMES               L**3   RATES FOR THIS TIME STEP           L**3/T
   ------------------                      ------------------------

                                     IN                                         IN
                                     --                                         --
        PRECIPITATION =        6220189.63          PRECIPITATION =        1243187.24
           STREAMFLOW =                               STREAMFLOW =                  
     GW BOUNDARY FLOW =             32.90       GW BOUNDARY FLOW =              0.83


                                    OUT                                        OUT
                                    ---                                        ---
   EVAPOTRANSPIRATION =        2408690.89     EVAPOTRANSPIRATION =           8454.44
           STREAMFLOW =        1663605.86             STREAMFLOW =          12305.84
     GW BOUNDARY FLOW =           5516.82       GW BOUNDARY FLOW =             35.34

   INFLOWS - OUTFLOWS =        2142408.96     INFLOWS - OUTFLOWS =        1222392.45
             --------                                   --------

 TOTAL STORAGE CHANGE =        2102454.18         STORAGE CHANGE =        1214843.33
       --------------                             --------------
         LAND SURFACE =        2352761.88           LAND SURFACE =         894135.84
            SOIL ZONE =        2261306.17              SOIL ZONE =         333365.51
     UNSATURATED ZONE =       -3169500.72       UNSATURATED ZONE =         -10272.34
       SATURATED ZONE =         657885.99         SATURATED ZONE =          -2385.69

 OVERALL BUDGET ERROR =          39954.78           BUDGET ERROR =           7549.12


  PERCENT DISCREPANCY =              0.64    PERCENT DISCREPANCY =              0.61



1
 SUMMARY VOLUMETRIC BUDGET FOR GSFLOW 
 DATE: 03 10 1991              CUMULATIVE TIME STEP:      10
 MODFLOW STRESS PERIOD      7     CURRENT TIME STEP:     161     ITERATIONS:       5

 -----------------------------------------------------------------------------------

   CUMULATIVE VOLUMES               L**3   RATES FOR THIS TIME STEP           L**3/T
   ------------------                      ------------------------

                                     IN                                         IN
                                     --                                         --
        PRECIPITATION =        8746030.42          PRECIPITATION =          32888.55
           STREAMFLOW =                               STREAMFLOW =                  
     GW BOUNDARY FLOW =             38.93       GW BOUNDARY FLOW =              0.89


                                    OUT                                        OUT
                                    ---                                        ---
   EVAPOTRANSPIRATION =        2481959.21     EVAPOTRANSPIRATION =           8863.49
           STREAMFLOW =        1842740.58             STREAMFLOW =          22228.34
     GW BOUNDARY FLOW =           5765.68       GW BOUNDARY FLOW =             35.45

   INFLOWS - OUTFLOWS =        4415603.87     INFLOWS - OUTFLOWS =           1762.15
             --------                                   --------

 TOTAL STORAGE CHANGE =        4354977.01         STORAGE CHANGE =           1542.55
       --------------                             --------------
         LAND SURFACE =        2523463.28           LAND SURFACE =         -14137.08
            SOIL ZONE =        4369277.65              SOIL ZONE =          18905.58
     UNSATURATED ZONE =       -3190348.60       UNSATURATED ZONE =          -1921.47
       SATURATED ZONE =         652583.62         SATURATED ZONE =          -1304.51

 OVERALL BUDGET ERROR =          60626.87           BUDGET ERROR =            219.60


  PERCENT DISCREPANCY =              0.70    PERCENT DISCREPANCY =              0.67



1
 SUMMARY VOLUMETRIC BUDGET FOR GSFLOW 
 DATE: 03 17 1991              CUMULATIVE TIME STEP:      17
 MODFLOW STRESS PERIOD      7     CURRENT TIME STEP:     168     ITERATIONS:       5

 -----------------------------------------------------------------------------------

   CUMULATIVE VOLUMES               L**3   RATES FOR THIS TIME STEP           L**3/T
   ------------------                      ------------------------

                                     IN                                         IN
                                     --                                         --
        PRECIPITATION =        9897129.71          PRECIPITATION =         157865.04
           STREAMFLOW =                               STREAMFLOW =                  
     GW BOUNDARY FLOW =             45.37       GW BOUNDARY FLOW =              0.95


                                    OUT                                        OUT
                                    ---                                        ---
   EVAPOTRANSPIRATION =        2509797.99     EVAPOTRANSPIRATION =           8079.76
           STREAMFLOW =        1985910.93             STREAMFLOW =          19801.29
     GW BOUNDARY FLOW =           6012.98       GW BOUNDARY FLOW =             35.25

   INFLOWS - OUTFLOWS =        5395453.19     INFLOWS - OUTFLOWS =         129949.70
             --------                                   --------

 TOTAL STORAGE CHANGE =        5334931.94         STORAGE CHANGE =         129994.61
       --------------                             --------------
         LAND SURFACE =        3672302.31           LAND SURFACE =         157496.61
            SOIL ZONE =        4229633.66              SOIL ZONE =         -22760.71
     UNSATURATED ZONE =       -3207297.45       UNSATURATED ZONE =          -2698.62
       SATURATED ZONE =         640292.16         SATURATED ZONE =          -2042.69

 OVERALL BUDGET ERROR =          60521.24           BUDGET ERROR =            -44.91


  PERCENT DISCREPANCY =              0.61    PERCENT DISCREPANCY =             -0.03



1
 SUMMARY VOLUMETRIC BUDGET FOR GSFLOW 
 DATE: 03 24 1991              CUMULATIVE TIME STEP:      24
 MODFLOW STRESS PERIOD      7     CURRENT TIME STEP:     175     ITERATIONS:       5

 -----------------------------------------------------------------------------------

   CUMULATIVE VOLUMES               L**3   RATES FOR THIS TIME STEP           L**3/T
   ------------------                      ------------------------

                                     IN                                         IN
                                     --                                         --
        PRECIPITATION =        1.1673D+07          PRECIPITATION =        1230031.83
           STREAMFLOW =                               STREAMFLOW =                  
     GW BOUNDARY FLOW =             52.22       GW BOUNDARY FLOW =              1.00


                                    OUT                                        OUT
                                    ---                                        ---
   EVAPOTRANSPIRATION =        2548621.87     EVAPOTRANSPIRATION =           4663.49
           STREAMFLOW =        2120445.36             STREAMFLOW =          18920.53
     GW BOUNDARY FLOW =           6259.06       GW BOUNDARY FLOW =             35.09

   INFLOWS - OUTFLOWS =        6997837.43     INFLOWS - OUTFLOWS =        1206413.73
             --------                                   --------

 TOTAL STORAGE CHANGE =        6937260.98         STORAGE CHANGE =        1206416.57
       --------------                             --------------
         LAND SURFACE =        5426161.22           LAND SURFACE =        1230031.83
            SOIL ZONE =        4116630.90              SOIL ZONE =         -17686.41
     UNSATURATED ZONE =       -3229823.16       UNSATURATED ZONE =          -3466.02
       SATURATED ZONE =         624290.55         SATURATED ZONE =          -2462.86

 OVERALL BUDGET ERROR =          60576.45           BUDGET ERROR =             -2.84


  PERCENT DISCREPANCY =              0.52    PERCENT DISCREPANCY =             -0.00



1
 SUMMARY VOLUMETRIC BUDGET FOR GSFLOW 
 DATE: 03 31 1991              CUMULATIVE TIME STEP:      31
 MODFLOW STRESS PERIOD      7     CURRENT TIME STEP:     182     ITERATIONS:       6

 -----------------------------------------------------------------------------------

   CUMULATIVE VOLUMES               L**3   RATES FOR THIS TIME STEP           L**3/T
   ------------------                      ------------------------

                                     IN                                         IN
                                     --                                         --
        PRECIPITATION =        1.2495D+07          PRECIPITATION =                  
           STREAMFLOW =                               STREAMFLOW =                  
     GW BOUNDARY FLOW =             59.46       GW BOUNDARY FLOW =              1.06


                                    OUT                                        OUT
                                    ---                                        ---
   EVAPOTRANSPIRATION =        2670321.83     EVAPOTRANSPIRATION =          48028.81
           STREAMFLOW =        2255015.86             STREAMFLOW =          22425.75
     GW BOUNDARY FLOW =           6504.17       GW BOUNDARY FLOW =             35.02

   INFLOWS - OUTFLOWS =        7563542.89     INFLOWS - OUTFLOWS =         -70488.53
             --------                                   --------

 TOTAL STORAGE CHANGE =        7501579.76         STORAGE CHANGE =         -71432.68
       --------------                             --------------
         LAND SURFACE =        5977198.26           LAND SURFACE =        -148137.48
            SOIL ZONE =        4172291.09              SOIL ZONE =          81883.46
     UNSATURATED ZONE =       -3254036.44       UNSATURATED ZONE =          -2459.86
       SATURATED ZONE =         606125.16         SATURATED ZONE =          -2718.82

 OVERALL BUDGET ERROR =          61963.13           BUDGET ERROR =            944.15


  PERCENT DISCREPANCY =              0.50    PERCENT DISCREPANCY =              1.33



1
 SUMMARY VOLUMETRIC BUDGET FOR GSFLOW 
 DATE: 04 07 1991              CUMULATIVE TIME STEP:       7
 MODFLOW STRESS PERIOD      8     CURRENT TIME STEP:     189     ITERATIONS:       7

 -----------------------------------------------------------------------------------

   CUMULATIVE VOLUMES               L**3   RATES FOR THIS TIME STEP           L**3/T
   ------------------                      ------------------------

                                     IN                                         IN
                                     --                                         --
        PRECIPITATION =        1.3018D+07          PRECIPITATION =                  
           STREAMFLOW =                               STREAMFLOW =                  
     GW BOUNDARY FLOW =             67.07       GW BOUNDARY FLOW =              1.11


                                    OUT                                        OUT
                                    ---                                        ---
   EVAPOTRANSPIRATION =        2978366.26     EVAPOTRANSPIRATION =          15949.26
           STREAMFLOW =        2577642.22             STREAMFLOW =          64536.94
     GW BOUNDARY FLOW =           6751.62       GW BOUNDARY FLOW =             35.61

   INFLOWS - OUTFLOWS =        7455043.70     INFLOWS - OUTFLOWS =         -80520.71
             --------                                   --------

 TOTAL STORAGE CHANGE =        7383954.37         STORAGE CHANGE =         -81098.42
       --------------                             --------------
         LAND SURFACE =        4335933.24           LAND SURFACE =         -73164.41
            SOIL ZONE =        5687508.89              SOIL ZONE =         -15243.50
     UNSATURATED ZONE =       -3230442.45       UNSATURATED ZONE =           9289.68
       SATURATED ZONE =         590952.75         SATURATED ZONE =          -1980.25

 OVERALL BUDGET ERROR =          71089.32           BUDGET ERROR =            577.72


  PERCENT DISCREPANCY =              0.55    PERCENT DISCREPANCY =              0.71



1
 SUMMARY VOLUMETRIC BUDGET FOR GSFLOW 
 DATE: 04 14 1991              CUMULATIVE TIME STEP:      14
 MODFLOW STRESS PERIOD      8     CURRENT TIME STEP:     196     ITERATIONS:       7

 -----------------------------------------------------------------------------------

   CUMULATIVE VOLUMES               L**3   RATES FOR THIS TIME STEP           L**3/T
   ------------------                      ------------------------

                                     IN                                         IN
                                     --                                         --
        PRECIPITATION =        1.3018D+07          PRECIPITATION =                  
           STREAMFLOW =                               STREAMFLOW =                  
     GW BOUNDARY FLOW =             74.99       GW BOUNDARY FLOW =              1.15


                                    OUT                                        OUT
                                    ---                                        ---
   EVAPOTRANSPIRATION =        3162436.41     EVAPOTRANSPIRATION =          42038.25
           STREAMFLOW =        3075722.82             STREAMFLOW =          75837.73
     GW BOUNDARY FLOW =           7000.98       GW BOUNDARY FLOW =             35.63

   INFLOWS - OUTFLOWS =        6772651.51     INFLOWS - OUTFLOWS =        -117910.47
             --------                                   --------

 TOTAL STORAGE CHANGE =        6698318.06         STORAGE CHANGE =        -118779.25
       --------------                             --------------
         LAND SURFACE =        3672284.10           LAND SURFACE =        -192335.10
            SOIL ZONE =        5616402.14              SOIL ZONE =          66811.74
     UNSATURATED ZONE =       -3168551.87       UNSATURATED ZONE =           8392.66
       SATURATED ZONE =         578181.41         SATURATED ZONE =          -1648.59

 OVERALL BUDGET ERROR =          74333.46           BUDGET ERROR =            868.78


  PERCENT DISCREPANCY =              0.57    PERCENT DISCREPANCY =              0.73



1
 SUMMARY VOLUMETRIC BUDGET FOR GSFLOW 
 DATE: 04 21 1991              CUMULATIVE TIME STEP:      21
 MODFLOW STRESS PERIOD      8     CURRENT TIME STEP:     203     ITERATIONS:       9

 -----------------------------------------------------------------------------------

   CUMULATIVE VOLUMES               L**3   RATES FOR THIS TIME STEP           L**3/T
   ------------------                      ------------------------

                                     IN                                         IN
                                     --                                         --
        PRECIPITATION =        1.3034D+07          PRECIPITATION =                  
           STREAMFLOW =                               STREAMFLOW =                  
     GW BOUNDARY FLOW =             83.22       GW BOUNDARY FLOW =              1.19


                                    OUT                                        OUT
                                    ---                                        ---
   EVAPOTRANSPIRATION =        3416064.20     EVAPOTRANSPIRATION =          46890.67
           STREAMFLOW =        3648548.66             STREAMFLOW =          93513.74
     GW BOUNDARY FLOW =           7250.56       GW BOUNDARY FLOW =             35.76

   INFLOWS - OUTFLOWS =        5962281.89     INFLOWS - OUTFLOWS =        -140438.98
             --------                                   --------

 TOTAL STORAGE CHANGE =        5883255.22         STORAGE CHANGE =        -141264.84
       --------------                             --------------
         LAND SURFACE =        2500532.49           LAND SURFACE =        -216949.67
            SOIL ZONE =        5920512.67              SOIL ZONE =          66431.20
     UNSATURATED ZONE =       -3104848.47       UNSATURATED ZONE =          10605.49
       SATURATED ZONE =         567055.91         SATURATED ZONE =          -1351.91

 OVERALL BUDGET ERROR =          79026.66           BUDGET ERROR =            825.86


  PERCENT DISCREPANCY =              0.61    PERCENT DISCREPANCY =              0.59



1
 SUMMARY VOLUMETRIC BUDGET FOR GSFLOW 
 DATE: 04 28 1991              CUMULATIVE TIME STEP:      28
 MODFLOW STRESS PERIOD      8     CURRENT TIME STEP:     210     ITERATIONS:       6

 -----------------------------------------------------------------------------------

   CUMULATIVE VOLUMES               L**3   RATES FOR THIS TIME STEP           L**3/T
   ------------------                      ------------------------

                                     IN                                         IN
                                     --                                         --
        PRECIPITATION =        1.3303D+07          PRECIPITATION =                  
           STREAMFLOW =                               STREAMFLOW =                  
     GW BOUNDARY FLOW =             91.71       GW BOUNDARY FLOW =              1.23


                                    OUT                                        OUT
                                    ---                                        ---
   EVAPOTRANSPIRATION =        3684465.57     EVAPOTRANSPIRATION =          58222.39
           STREAMFLOW =        4320007.31             STREAMFLOW =          95188.48
     GW BOUNDARY FLOW =           7500.71       GW BOUNDARY FLOW =             35.69

   INFLOWS - OUTFLOWS =        5291548.62     INFLOWS - OUTFLOWS =        -153445.33
             --------                                   --------

 TOTAL STORAGE CHANGE =        5208728.16         STORAGE CHANGE =        -153762.15
       --------------                             --------------
         LAND SURFACE =        1748177.07           LAND SURFACE =        -137137.09
            SOIL ZONE =        5929719.71              SOIL ZONE =         -25917.92
     UNSATURATED ZONE =       -3029274.68       UNSATURATED ZONE =          10328.18
       SATURATED ZONE =         560103.06         SATURATED ZONE =          -1035.38

 OVERALL BUDGET ERROR =          82820.45           BUDGET ERROR =            316.82


  PERCENT DISCREPANCY =              0.62    PERCENT DISCREPANCY =              0.21



1
 SUMMARY VOLUMETRIC BUDGET FOR GSFLOW 
 DATE: 05 05 1991              CUMULATIVE TIME STEP:       5
 MODFLOW STRESS PERIOD      9     CURRENT TIME STEP:     217     ITERATIONS:      72

 -----------------------------------------------------------------------------------

   CUMULATIVE VOLUMES               L**3   RATES FOR THIS TIME STEP           L**3/T
   ------------------                      ------------------------

                                     IN                                         IN
                                     --                                         --
        PRECIPITATION =        1.3510D+07          PRECIPITATION =                  
           STREAMFLOW =                               STREAMFLOW =                  
     GW BOUNDARY FLOW =            100.46       GW BOUNDARY FLOW =              1.27


                                    OUT                                        OUT
                                    ---                                        ---
   EVAPOTRANSPIRATION =        4061966.21     EVAPOTRANSPIRATION =          90404.20
           STREAMFLOW =        4927997.52             STREAMFLOW =          86499.05
     GW BOUNDARY FLOW =           7749.35       GW BOUNDARY FLOW =             35.45

   INFLOWS - OUTFLOWS =        4512095.51     INFLOWS - OUTFLOWS =        -176937.43
             --------                                   --------

 TOTAL STORAGE CHANGE =        4427688.60         STORAGE CHANGE =        -177059.77
       --------------                             --------------
         LAND SURFACE =        1036229.48           LAND SURFACE =        -150134.30
            SOIL ZONE =        5801208.73              SOIL ZONE =         -35930.24
     UNSATURATED ZONE =       -2963623.31       UNSATURATED ZONE =           8108.70
       SATURATED ZONE =         553870.26         SATURATED ZONE =            896.01

 OVERALL BUDGET ERROR =          84406.91           BUDGET ERROR =            122.34


  PERCENT DISCREPANCY =              0.63    PERCENT DISCREPANCY =              0.07



1
 SUMMARY VOLUMETRIC BUDGET FOR GSFLOW 
 DATE: 05 12 1991              CUMULATIVE TIME STEP:      12
 MODFLOW STRESS PERIOD      9     CURRENT TIME STEP:     224     ITERATIONS:       7

 -----------------------------------------------------------------------------------

   CUMULATIVE VOLUMES               L**3   RATES FOR THIS TIME STEP           L**3/T
   ------------------                      ------------------------

                                     IN                                         IN
                                     --                                         --
        PRECIPITATION =        1.4029D+07          PRECIPITATION =                  
           STREAMFLOW =                               STREAMFLOW =                  
     GW BOUNDARY FLOW =            109.48       GW BOUNDARY FLOW =              1.31


                                    OUT                                        OUT
                                    ---                                        ---
   EVAPOTRANSPIRATION =        4457581.90     EVAPOTRANSPIRATION =          68948.89
           STREAMFLOW =        5495054.89             STREAMFLOW =          84066.46
     GW BOUNDARY FLOW =           7996.28       GW BOUNDARY FLOW =             35.23

   INFLOWS - OUTFLOWS =        4068698.57     INFLOWS - OUTFLOWS =        -153049.28
             --------                                   --------

 TOTAL STORAGE CHANGE =        3982311.38         STORAGE CHANGE =        -153104.68
       --------------                             --------------
         LAND SURFACE =         577307.06           LAND SURFACE =        -205175.60
            SOIL ZONE =        5761609.95              SOIL ZONE =          44799.07
     UNSATURATED ZONE =       -2901755.59       UNSATURATED ZONE =           8588.64
       SATURATED ZONE =         545146.07         SATURATED ZONE =          -1316.85

 OVERALL BUDGET ERROR =          86387.19           BUDGET ERROR =             55.40


  PERCENT DISCREPANCY =              0.62    PERCENT DISCREPANCY =              0.04



1
 SUMMARY VOLUMETRIC BUDGET FOR GSFLOW 
 DATE: 05 19 1991              CUMULATIVE TIME STEP:      19
 MODFLOW STRESS PERIOD      9     CURRENT TIME STEP:     231     ITERATIONS:       9

 -----------------------------------------------------------------------------------

   CUMULATIVE VOLUMES               L**3   RATES FOR THIS TIME STEP           L**3/T
   ------------------                      ------------------------

                                     IN                                         IN
                                     --                                         --
        PRECIPITATION =        1.4365D+07          PRECIPITATION =                  
           STREAMFLOW =                               STREAMFLOW =                  
     GW BOUNDARY FLOW =            118.77       GW BOUNDARY FLOW =              1.34


                                    OUT                                        OUT
                                    ---                                        ---
   EVAPOTRANSPIRATION =        4896250.54     EVAPOTRANSPIRATION =          20442.83
           STREAMFLOW =        5986660.23             STREAMFLOW =          62252.44
     GW BOUNDARY FLOW =           8240.99       GW BOUNDARY FLOW =             34.77

   INFLOWS - OUTFLOWS =        3474345.33     INFLOWS - OUTFLOWS =         -82728.69
             --------                                   --------

 TOTAL STORAGE CHANGE =        3386974.88         STORAGE CHANGE =         -82775.01
       --------------                             --------------
         LAND SURFACE =         228246.02           LAND SURFACE =         -22354.60
            SOIL ZONE =        5476989.75              SOIL ZONE =         -64497.76
     UNSATURATED ZONE =       -2854542.54       UNSATURATED ZONE =           5352.63
       SATURATED ZONE =         536277.28         SATURATED ZONE =          -1275.34

 OVERALL BUDGET ERROR =          87370.45           BUDGET ERROR =             46.31


  PERCENT DISCREPANCY =              0.61    PERCENT DISCREPANCY =              0.06



1
 SUMMARY VOLUMETRIC BUDGET FOR GSFLOW 
 DATE: 05 26 1991              CUMULATIVE TIME STEP:      26
 MODFLOW STRESS PERIOD      9     CURRENT TIME STEP:     238     ITERATIONS:       8

 -----------------------------------------------------------------------------------

   CUMULATIVE VOLUMES               L**3   RATES FOR THIS TIME STEP           L**3/T
   ------------------                      ------------------------

                                     IN                                         IN
                                     --                                         --
        PRECIPITATION =        1.4426D+07          PRECIPITATION =                  
           STREAMFLOW =                               STREAMFLOW =                  
     GW BOUNDARY FLOW =            128.34       GW BOUNDARY FLOW =              1.39


                                    OUT                                        OUT
                                    ---                                        ---
   EVAPOTRANSPIRATION =        5580889.01     EVAPOTRANSPIRATION =          76900.78
           STREAMFLOW =        6339914.09             STREAMFLOW =          37303.54
     GW BOUNDARY FLOW =           8482.51       GW BOUNDARY FLOW =             34.22

   INFLOWS - OUTFLOWS =        2497340.34     INFLOWS - OUTFLOWS =        -114237.15
             --------                                   --------

 TOTAL STORAGE CHANGE =        2410012.60         STORAGE CHANGE =        -114350.28
       --------------                             --------------
         LAND SURFACE =          55230.26           LAND SURFACE =          -8157.07
            SOIL ZONE =        4665240.95              SOIL ZONE =        -103932.03
     UNSATURATED ZONE =       -2835439.34       UNSATURATED ZONE =           -285.31
       SATURATED ZONE =         524975.86         SATURATED ZONE =          -1975.94

 OVERALL BUDGET ERROR =          87327.75           BUDGET ERROR =            113.13


  PERCENT DISCREPANCY =              0.61    PERCENT DISCREPANCY =              0.10



1
 SUMMARY VOLUMETRIC BUDGET FOR GSFLOW 
 DATE: 06 02 1991              CUMULATIVE TIME STEP:       2
 MODFLOW STRESS PERIOD     10     CURRENT TIME STEP:     245     ITERATIONS:       9

 -----------------------------------------------------------------------------------

   CUMULATIVE VOLUMES               L**3   RATES FOR THIS TIME STEP           L**3/T
   ------------------                      ------------------------

                                     IN                                         IN
                                     --                                         --
        PRECIPITATION =        1.4671D+07          PRECIPITATION =                  
           STREAMFLOW =                               STREAMFLOW =                  
     GW BOUNDARY FLOW =            138.21       GW BOUNDARY FLOW =              1.43


                                    OUT                                        OUT
                                    ---                                        ---
   EVAPOTRANSPIRATION =        6170064.25     EVAPOTRANSPIRATION =         127566.80
           STREAMFLOW =        6566383.33             STREAMFLOW =          28343.33
     GW BOUNDARY FLOW =           8720.72       GW BOUNDARY FLOW =             33.89

   INFLOWS - OUTFLOWS =        1925944.71     INFLOWS - OUTFLOWS =        -155942.59
             --------                                   --------

 TOTAL STORAGE CHANGE =        1838965.95         STORAGE CHANGE =        -155364.37
       --------------                             --------------
         LAND SURFACE =          19758.80           LAND SURFACE =          -4093.84
            SOIL ZONE =        4160960.81              SOIL ZONE =        -145583.62
     UNSATURATED ZONE =       -2849726.17       UNSATURATED ZONE =          -2977.85
       SATURATED ZONE =         507967.14         SATURATED ZONE =          -2709.14

 OVERALL BUDGET ERROR =          86978.76           BUDGET ERROR =           -578.22


  PERCENT DISCREPANCY =              0.59    PERCENT DISCREPANCY =             -0.37



1
 SUMMARY VOLUMETRIC BUDGET FOR GSFLOW 
 DATE: 06 09 1991              CUMULATIVE TIME STEP:       9
 MODFLOW STRESS PERIOD     10     CURRENT TIME STEP:     252     ITERATIONS:       7

 -----------------------------------------------------------------------------------

   CUMULATIVE VOLUMES               L**3   RATES FOR THIS TIME STEP           L**3/T
   ------------------                      ------------------------

                                     IN                                         IN
                                     --                                         --
        PRECIPITATION =        1.4671D+07          PRECIPITATION =                  
           STREAMFLOW =                               STREAMFLOW =                  
     GW BOUNDARY FLOW =            148.37       GW BOUNDARY FLOW =              1.47


                                    OUT                                        OUT
                                    ---                                        ---
   EVAPOTRANSPIRATION =        6958545.48     EVAPOTRANSPIRATION =         172470.54
           STREAMFLOW =        6724402.32             STREAMFLOW =          19027.55
     GW BOUNDARY FLOW =           8956.44       GW BOUNDARY FLOW =             33.53

   INFLOWS - OUTFLOWS =         979218.92     INFLOWS - OUTFLOWS =        -191530.15
             --------                                   --------

 TOTAL STORAGE CHANGE =         893750.45         STORAGE CHANGE =        -190823.09
       --------------                             --------------
         LAND SURFACE =           3956.63           LAND SURFACE =          -2185.97
            SOIL ZONE =        3289248.02              SOIL ZONE =        -178832.17
     UNSATURATED ZONE =       -2884663.55       UNSATURATED ZONE =          -6063.58
       SATURATED ZONE =         485203.46         SATURATED ZONE =          -3741.44

 OVERALL BUDGET ERROR =          85468.47           BUDGET ERROR =           -707.07


  PERCENT DISCREPANCY =              0.58    PERCENT DISCREPANCY =             -0.37



1
 SUMMARY VOLUMETRIC BUDGET FOR GSFLOW 
 DATE: 06 16 1991              CUMULATIVE TIME STEP:      16
 MODFLOW STRESS PERIOD     10     CURRENT TIME STEP:     259     ITERATIONS:       6

 -----------------------------------------------------------------------------------

   CUMULATIVE VOLUMES               L**3   RATES FOR THIS TIME STEP           L**3/T
   ------------------                      ------------------------

                                     IN                                         IN
                                     --                                         --
        PRECIPITATION =        1.4671D+07          PRECIPITATION =                  
           STREAMFLOW =                               STREAMFLOW =                  
     GW BOUNDARY FLOW =            158.85       GW BOUNDARY FLOW =              1.52


                                    OUT                                        OUT
                                    ---                                        ---
   EVAPOTRANSPIRATION =        7975180.58     EVAPOTRANSPIRATION =         117014.79
           STREAMFLOW =        6827077.70             STREAMFLOW =          12768.00
     GW BOUNDARY FLOW =           9188.62       GW BOUNDARY FLOW =             33.05

   INFLOWS - OUTFLOWS =        -140313.25     INFLOWS - OUTFLOWS =        -129814.32
             --------                                   --------

 TOTAL STORAGE CHANGE =        -220444.15         STORAGE CHANGE =        -129037.19
       --------------                             --------------
         LAND SURFACE =            106.65           LAND SURFACE =            -66.98
            SOIL ZONE =        2292874.08              SOIL ZONE =        -107780.49
     UNSATURATED ZONE =       -2966827.04       UNSATURATED ZONE =         -15783.33
       SATURATED ZONE =         453395.74         SATURATED ZONE =          -5406.47

 OVERALL BUDGET ERROR =          80130.90           BUDGET ERROR =           -777.13


  PERCENT DISCREPANCY =              0.54    PERCENT DISCREPANCY =             -0.60



1
 SUMMARY VOLUMETRIC BUDGET FOR GSFLOW 
 DATE: 06 23 1991              CUMULATIVE TIME STEP:      23
 MODFLOW STRESS PERIOD     10     CURRENT TIME STEP:     266     ITERATIONS:       7

 -----------------------------------------------------------------------------------

   CUMULATIVE VOLUMES               L**3   RATES FOR THIS TIME STEP           L**3/T
   ------------------                      ------------------------

                                     IN                                         IN
                                     --                                         --
        PRECIPITATION =        1.4671D+07          PRECIPITATION =                  
           STREAMFLOW =                               STREAMFLOW =                  
     GW BOUNDARY FLOW =            169.63       GW BOUNDARY FLOW =              1.56


                                    OUT                                        OUT
                                    ---                                        ---
   EVAPOTRANSPIRATION =        8517687.65     EVAPOTRANSPIRATION =          38761.26
           STREAMFLOW =        6909628.23             STREAMFLOW =          12029.66
     GW BOUNDARY FLOW =           9419.30       GW BOUNDARY FLOW =             32.93

   INFLOWS - OUTFLOWS =        -765590.73     INFLOWS - OUTFLOWS =         -50822.29
             --------                                   --------

 TOTAL STORAGE CHANGE =        -841553.08         STORAGE CHANGE =         -50552.38
       --------------                             --------------
         LAND SURFACE =             16.57           LAND SURFACE =             -3.65
            SOIL ZONE =        1826293.73              SOIL ZONE =         -31390.83
     UNSATURATED ZONE =       -3077548.73       UNSATURATED ZONE =         -12806.39
       SATURATED ZONE =         409678.36         SATURATED ZONE =          -6351.59

 OVERALL BUDGET ERROR =          75962.34           BUDGET ERROR =           -269.91


  PERCENT DISCREPANCY =              0.49    PERCENT DISCREPANCY =             -0.53



1
 SUMMARY VOLUMETRIC BUDGET FOR GSFLOW 
 DATE: 06 30 1991              CUMULATIVE TIME STEP:      30
 MODFLOW STRESS PERIOD     10     CURRENT TIME STEP:     273     ITERATIONS:       8

 -----------------------------------------------------------------------------------

   CUMULATIVE VOLUMES               L**3   RATES FOR THIS TIME STEP           L**3/T
   ------------------                      ------------------------

                                     IN                                         IN
[...]
   ------------------                      ------------------------

                                     IN                                         IN
                                     --                                         --
        PRECIPITATION =        1.3351D+08          PRECIPITATION =                  
           STREAMFLOW =                               STREAMFLOW =                  
     GW BOUNDARY FLOW =           5625.65       GW BOUNDARY FLOW =              3.53


                                    OUT                                        OUT
                                    ---                                        ---
   EVAPOTRANSPIRATION =        7.3394D+07     EVAPOTRANSPIRATION =          63192.20
           STREAMFLOW =        7.1982D+07             STREAMFLOW =           6658.10
     GW BOUNDARY FLOW =          51123.47       GW BOUNDARY FLOW =             24.00

   INFLOWS - OUTFLOWS =       -1.1913D+07     INFLOWS - OUTFLOWS =         -69870.78
             --------                                   --------

 TOTAL STORAGE CHANGE =       -1.2394D+07         STORAGE CHANGE =         -69839.81
       --------------                             --------------
         LAND SURFACE =         114525.44           LAND SURFACE =          -7766.53
            SOIL ZONE =        1049015.91              SOIL ZONE =         -43569.50
     UNSATURATED ZONE =         -72485.94       UNSATURATED ZONE =         -10579.91
       SATURATED ZONE =       -1.3486D+07         SATURATED ZONE =          -7924.53

 OVERALL BUDGET ERROR =         481207.45           BUDGET ERROR =            -30.97


  PERCENT DISCREPANCY =              0.33    PERCENT DISCREPANCY =             -0.04



1
 SUMMARY VOLUMETRIC BUDGET FOR GSFLOW 
 DATE: 09 10 1995              CUMULATIVE TIME STEP:      10
 MODFLOW STRESS PERIOD     61     CURRENT TIME STEP:    1806     ITERATIONS:       7

 -----------------------------------------------------------------------------------

   CUMULATIVE VOLUMES               L**3   RATES FOR THIS TIME STEP           L**3/T
   ------------------                      ------------------------

                                     IN                                         IN
                                     --                                         --
        PRECIPITATION =        1.3351D+08          PRECIPITATION =                  
           STREAMFLOW =                               STREAMFLOW =                  
     GW BOUNDARY FLOW =           5650.72       GW BOUNDARY FLOW =              3.62


                                    OUT                                        OUT
                                    ---                                        ---
   EVAPOTRANSPIRATION =        7.3747D+07     EVAPOTRANSPIRATION =          47291.43
           STREAMFLOW =        7.2030D+07             STREAMFLOW =           6695.01
     GW BOUNDARY FLOW =          51291.62       GW BOUNDARY FLOW =             24.01

   INFLOWS - OUTFLOWS =       -1.2314D+07     INFLOWS - OUTFLOWS =         -54006.83
             --------                                   --------

 TOTAL STORAGE CHANGE =       -1.2796D+07         STORAGE CHANGE =         -53983.45
       --------------                             --------------
         LAND SURFACE =          75925.28           LAND SURFACE =          -4673.87
            SOIL ZONE =         809007.10              SOIL ZONE =         -31430.61
     UNSATURATED ZONE =        -144452.70       UNSATURATED ZONE =         -10349.78
       SATURATED ZONE =       -1.3537D+07         SATURATED ZONE =          -7529.87

 OVERALL BUDGET ERROR =         481063.20           BUDGET ERROR =            -23.37


  PERCENT DISCREPANCY =              0.33    PERCENT DISCREPANCY =             -0.04



1
 SUMMARY VOLUMETRIC BUDGET FOR GSFLOW 
 DATE: 09 17 1995              CUMULATIVE TIME STEP:      17
 MODFLOW STRESS PERIOD     61     CURRENT TIME STEP:    1813     ITERATIONS:       7

 -----------------------------------------------------------------------------------

   CUMULATIVE VOLUMES               L**3   RATES FOR THIS TIME STEP           L**3/T
   ------------------                      ------------------------

                                     IN                                         IN
                                     --                                         --
        PRECIPITATION =        1.3351D+08          PRECIPITATION =                  
           STREAMFLOW =                               STREAMFLOW =                  
     GW BOUNDARY FLOW =           5676.42       GW BOUNDARY FLOW =              3.71


                                    OUT                                        OUT
                                    ---                                        ---
   EVAPOTRANSPIRATION =        7.4129D+07     EVAPOTRANSPIRATION =          43132.37
           STREAMFLOW =        7.2069D+07             STREAMFLOW =           5870.43
     GW BOUNDARY FLOW =          51458.96       GW BOUNDARY FLOW =             23.93

   INFLOWS - OUTFLOWS =       -1.2735D+07     INFLOWS - OUTFLOWS =         -49023.01
             --------                                   --------

 TOTAL STORAGE CHANGE =       -1.3216D+07         STORAGE CHANGE =         -49000.29
       --------------                             --------------
         LAND SURFACE =          44186.49           LAND SURFACE =          -3043.17
            SOIL ZONE =         564798.26              SOIL ZONE =         -26440.52
     UNSATURATED ZONE =        -220992.59       UNSATURATED ZONE =         -10700.90
       SATURATED ZONE =       -1.3605D+07         SATURATED ZONE =          -8816.37

 OVERALL BUDGET ERROR =         480855.11           BUDGET ERROR =            -22.72


  PERCENT DISCREPANCY =              0.33    PERCENT DISCREPANCY =             -0.05



1
 SUMMARY VOLUMETRIC BUDGET FOR GSFLOW 
 DATE: 09 24 1995              CUMULATIVE TIME STEP:      24
 MODFLOW STRESS PERIOD     61     CURRENT TIME STEP:    1820     ITERATIONS:       6

 -----------------------------------------------------------------------------------

   CUMULATIVE VOLUMES               L**3   RATES FOR THIS TIME STEP           L**3/T
   ------------------                      ------------------------

                                     IN                                         IN
                                     --                                         --
        PRECIPITATION =        1.3351D+08          PRECIPITATION =                  
           STREAMFLOW =                               STREAMFLOW =                  
     GW BOUNDARY FLOW =           5702.73       GW BOUNDARY FLOW =              3.79


                                    OUT                                        OUT
                                    ---                                        ---
   EVAPOTRANSPIRATION =        7.4394D+07     EVAPOTRANSPIRATION =          27426.98
           STREAMFLOW =        7.2111D+07             STREAMFLOW =           6509.31
     GW BOUNDARY FLOW =          51626.44       GW BOUNDARY FLOW =             23.97

   INFLOWS - OUTFLOWS =       -1.3043D+07     INFLOWS - OUTFLOWS =         -33956.47
             --------                                   --------

 TOTAL STORAGE CHANGE =       -1.3523D+07         STORAGE CHANGE =         -33944.36
       --------------                             --------------
         LAND SURFACE =          28055.71           LAND SURFACE =          -1559.79
            SOIL ZONE =         409280.61              SOIL ZONE =         -15434.75
     UNSATURATED ZONE =        -293010.19       UNSATURATED ZONE =          -9211.07
       SATURATED ZONE =       -1.3668D+07         SATURATED ZONE =          -7739.42

 OVERALL BUDGET ERROR =         480708.61           BUDGET ERROR =            -12.11


  PERCENT DISCREPANCY =              0.33    PERCENT DISCREPANCY =             -0.04



1
 SUMMARY VOLUMETRIC BUDGET FOR GSFLOW 
 DATE: 10 01 1995              CUMULATIVE TIME STEP:       1
 MODFLOW STRESS PERIOD     62     CURRENT TIME STEP:    1827     ITERATIONS:       6

 -----------------------------------------------------------------------------------

   CUMULATIVE VOLUMES               L**3   RATES FOR THIS TIME STEP           L**3/T
   ------------------                      ------------------------

                                     IN                                         IN
                                     --                                         --
        PRECIPITATION =        1.3351D+08          PRECIPITATION =                  
           STREAMFLOW =                               STREAMFLOW =                  
     GW BOUNDARY FLOW =           5729.61       GW BOUNDARY FLOW =              3.87


                                    OUT                                        OUT
                                    ---                                        ---
   EVAPOTRANSPIRATION =        7.4509D+07     EVAPOTRANSPIRATION =          16757.07
           STREAMFLOW =        7.2164D+07             STREAMFLOW =           7496.38
     GW BOUNDARY FLOW =          51794.81       GW BOUNDARY FLOW =             24.06

   INFLOWS - OUTFLOWS =       -1.3211D+07     INFLOWS - OUTFLOWS =         -24273.64
             --------                                   --------

 TOTAL STORAGE CHANGE =       -1.3691D+07         STORAGE CHANGE =         -24268.36
       --------------                             --------------
         LAND SURFACE =          22241.67           LAND SURFACE =           -699.89
            SOIL ZONE =         346647.57              SOIL ZONE =          -9153.69
     UNSATURATED ZONE =        -350746.21       UNSATURATED ZONE =          -8087.48
       SATURATED ZONE =       -1.3710D+07         SATURATED ZONE =          -6327.97

 OVERALL BUDGET ERROR =         480663.12           BUDGET ERROR =             -5.28


  PERCENT DISCREPANCY =              0.33    PERCENT DISCREPANCY =             -0.02



1
 SUMMARY VOLUMETRIC BUDGET FOR GSFLOW 
 DATE: 10 08 1995              CUMULATIVE TIME STEP:       8
 MODFLOW STRESS PERIOD     62     CURRENT TIME STEP:    1834     ITERATIONS:       6

 -----------------------------------------------------------------------------------

   CUMULATIVE VOLUMES               L**3   RATES FOR THIS TIME STEP           L**3/T
   ------------------                      ------------------------

                                     IN                                         IN
                                     --                                         --
        PRECIPITATION =        1.3351D+08          PRECIPITATION =                  
           STREAMFLOW =                               STREAMFLOW =                  
     GW BOUNDARY FLOW =           5757.03       GW BOUNDARY FLOW =              3.95


                                    OUT                                        OUT
                                    ---                                        ---
   EVAPOTRANSPIRATION =        7.4632D+07     EVAPOTRANSPIRATION =          15487.55
           STREAMFLOW =        7.2215D+07             STREAMFLOW =           7401.56
     GW BOUNDARY FLOW =          51963.13       GW BOUNDARY FLOW =             24.06

   INFLOWS - OUTFLOWS =       -1.3385D+07     INFLOWS - OUTFLOWS =         -22909.22
             --------                                   --------

 TOTAL STORAGE CHANGE =       -1.3865D+07         STORAGE CHANGE =         -22903.18
       --------------                             --------------
         LAND SURFACE =          18179.43           LAND SURFACE =           -628.45
            SOIL ZONE =         279466.94              SOIL ZONE =          -8135.83
     UNSATURATED ZONE =        -405458.32       UNSATURATED ZONE =          -7458.11
       SATURATED ZONE =       -1.3758D+07         SATURATED ZONE =          -6681.47

 OVERALL BUDGET ERROR =         480605.91           BUDGET ERROR =             -6.04


  PERCENT DISCREPANCY =              0.33    PERCENT DISCREPANCY =             -0.03



1
 SUMMARY VOLUMETRIC BUDGET FOR GSFLOW 
 DATE: 10 15 1995              CUMULATIVE TIME STEP:      15
 MODFLOW STRESS PERIOD     62     CURRENT TIME STEP:    1841     ITERATIONS:       5

 -----------------------------------------------------------------------------------

   CUMULATIVE VOLUMES               L**3   RATES FOR THIS TIME STEP           L**3/T
   ------------------                      ------------------------

                                     IN                                         IN
                                     --                                         --
        PRECIPITATION =        1.3351D+08          PRECIPITATION =                  
           STREAMFLOW =                               STREAMFLOW =                  
     GW BOUNDARY FLOW =           5784.94       GW BOUNDARY FLOW =              4.02


                                    OUT                                        OUT
                                    ---                                        ---
   EVAPOTRANSPIRATION =        7.4748D+07     EVAPOTRANSPIRATION =          18077.49
           STREAMFLOW =        7.2265D+07             STREAMFLOW =           6986.12
     GW BOUNDARY FLOW =          52131.43       GW BOUNDARY FLOW =             24.03

   INFLOWS - OUTFLOWS =       -1.3551D+07     INFLOWS - OUTFLOWS =         -25083.62
             --------                                   --------

 TOTAL STORAGE CHANGE =       -1.4032D+07         STORAGE CHANGE =         -25075.22
       --------------                             --------------
         LAND SURFACE =          14037.98           LAND SURFACE =           -696.59
            SOIL ZONE =         218929.49              SOIL ZONE =          -9198.63
     UNSATURATED ZONE =        -455272.71       UNSATURATED ZONE =          -6966.22
       SATURATED ZONE =       -1.3810D+07         SATURATED ZONE =          -8214.45

 OVERALL BUDGET ERROR =         480540.96           BUDGET ERROR =             -8.40


  PERCENT DISCREPANCY =              0.33    PERCENT DISCREPANCY =             -0.03



1
 SUMMARY VOLUMETRIC BUDGET FOR GSFLOW 
 DATE: 10 22 1995              CUMULATIVE TIME STEP:      22
 MODFLOW STRESS PERIOD     62     CURRENT TIME STEP:    1848     ITERATIONS:       7

 -----------------------------------------------------------------------------------

   CUMULATIVE VOLUMES               L**3   RATES FOR THIS TIME STEP           L**3/T
   ------------------                      ------------------------

                                     IN                                         IN
                                     --                                         --
        PRECIPITATION =        1.3351D+08          PRECIPITATION =                  
           STREAMFLOW =                               STREAMFLOW =                  
     GW BOUNDARY FLOW =           5813.31       GW BOUNDARY FLOW =              4.08


                                    OUT                                        OUT
                                    ---                                        ---
   EVAPOTRANSPIRATION =        7.4852D+07     EVAPOTRANSPIRATION =           4702.79
           STREAMFLOW =        7.2315D+07             STREAMFLOW =           8149.78
     GW BOUNDARY FLOW =          52299.75       GW BOUNDARY FLOW =             24.14

   INFLOWS - OUTFLOWS =       -1.3705D+07     INFLOWS - OUTFLOWS =         -12872.63
             --------                                   --------

 TOTAL STORAGE CHANGE =       -1.4186D+07         STORAGE CHANGE =         -12873.32
       --------------                             --------------
         LAND SURFACE =          10452.79           LAND SURFACE =             -6.45
            SOIL ZONE =         168062.82              SOIL ZONE =          -2048.69
     UNSATURATED ZONE =        -501860.64       UNSATURATED ZONE =          -6185.88
       SATURATED ZONE =       -1.3863D+07         SATURATED ZONE =          -4632.98

 OVERALL BUDGET ERROR =         480487.82           BUDGET ERROR =              0.70


  PERCENT DISCREPANCY =              0.33    PERCENT DISCREPANCY =              0.01



1
 SUMMARY VOLUMETRIC BUDGET FOR GSFLOW 
 DATE: 10 29 1995              CUMULATIVE TIME STEP:      29
 MODFLOW STRESS PERIOD     62     CURRENT TIME STEP:    1855     ITERATIONS:      14

 -----------------------------------------------------------------------------------

   CUMULATIVE VOLUMES               L**3   RATES FOR THIS TIME STEP           L**3/T
   ------------------                      ------------------------

                                     IN                                         IN
                                     --                                         --
        PRECIPITATION =        1.3351D+08          PRECIPITATION =                  
           STREAMFLOW =                               STREAMFLOW =                  
     GW BOUNDARY FLOW =           5842.10       GW BOUNDARY FLOW =              4.14


                                    OUT                                        OUT
                                    ---                                        ---
   EVAPOTRANSPIRATION =        7.4917D+07     EVAPOTRANSPIRATION =          11330.97
           STREAMFLOW =        7.2370D+07             STREAMFLOW =           7492.16
     GW BOUNDARY FLOW =          52468.50       GW BOUNDARY FLOW =             24.09

   INFLOWS - OUTFLOWS =       -1.3825D+07     INFLOWS - OUTFLOWS =         -18843.07
             --------                                   --------

 TOTAL STORAGE CHANGE =       -1.4306D+07         STORAGE CHANGE =         -18836.63
       --------------                             --------------
         LAND SURFACE =           9254.98           LAND SURFACE =           -359.13
            SOIL ZONE =         138090.19              SOIL ZONE =          -5038.63
     UNSATURATED ZONE =        -545996.95       UNSATURATED ZONE =          -6235.88
       SATURATED ZONE =       -1.3908D+07         SATURATED ZONE =          -7203.66

 OVERALL BUDGET ERROR =         480461.03           BUDGET ERROR =             -6.45


  PERCENT DISCREPANCY =              0.33    PERCENT DISCREPANCY =             -0.03



 Number of time steps:   1857;  Number of non-convergence:   0
 MF iterations:         11839;  SZ iterations:           11817
 Average MF iterations:  6.38;  Average SZ iterations:    6.36
 Maximum MF iterations:    72;  Maximum SZ iterations:      50

mxsziter reached: 1

MF iteration distribution:      0    0   26  200  318  471  487  256   66   17
                                2    2    3    2    1    2    1    0    0    0
                                0    0    0    0    0    0    0    0    1    0
                                0    0    0    0    0    0    0    0    0    0
                                0    0    0    0    0    1    0    0    0    0
                                0    0    0    0    0    0    0    0    0    0
                                0    0    0    0    0    0    0    0    0    0
                                0    1    0    0    0    0    0    0    0    0

SZ computation distribution:    0    0   26  200  318  471  487  256   66   17
                                2    2    3    2    1    2    1    0    0    0
                                0    0    0    0    0    0    0    0    1    0
                                0    0    0    0    0    0    0    0    0    0
                                0    0    0    0    0    1    0    0    0    1
                                0    0    0    0    0    0    0    0    0    0
                                0    0    0    0    0    0    0    0    0    0
                                0    0    0    0    0    0    0    0    0    0

