1
 SUMMARY VOLUMETRIC BUDGET FOR GSFLOW 
 DATE: 10 07 1990              CUMULATIVE TIME STEP:       7
 MODFLOW STRESS PERIOD      2     CURRENT TIME STEP:       7     ITERATIONS:       7

 -----------------------------------------------------------------------------------

   CUMULATIVE VOLUMES               L**3   RATES FOR THIS TIME STEP           L**3/T
   ------------------                      ------------------------

                                     IN                                         IN
                                     --                                         --
        PRECIPITATION =                            PRECIPITATION =                  
           STREAMFLOW =                               STREAMFLOW =                  
     GW BOUNDARY FLOW =                         GW BOUNDARY FLOW =                  


                                    OUT                                        OUT
                                    ---                                        ---
   EVAPOTRANSPIRATION =         385031.74     EVAPOTRANSPIRATION =          11801.35
           STREAMFLOW =          45661.56             STREAMFLOW =           8128.73
     GW BOUNDARY FLOW =            252.78       GW BOUNDARY FLOW =             36.30

   INFLOWS - OUTFLOWS =        -430946.08     INFLOWS - OUTFLOWS =         -19966.38
             --------                                   --------

 TOTAL STORAGE CHANGE =        -429349.36         STORAGE CHANGE =         -19938.27
       --------------                             --------------
         LAND SURFACE =                             LAND SURFACE =                  
            SOIL ZONE =         -33378.23              SOIL ZONE =           -943.72
     UNSATURATED ZONE =        -502794.44       UNSATURATED ZONE =         -33592.86
       SATURATED ZONE =         106823.31         SATURATED ZONE =          14598.31

 OVERALL BUDGET ERROR =          -1596.72           BUDGET ERROR =            -28.11


  PERCENT DISCREPANCY =             -0.37    PERCENT DISCREPANCY =             -0.14



1
 SUMMARY VOLUMETRIC BUDGET FOR GSFLOW 
 DATE: 10 14 1990              CUMULATIVE TIME STEP:      14
 MODFLOW STRESS PERIOD      2     CURRENT TIME STEP:      14     ITERATIONS:       6

 -----------------------------------------------------------------------------------

   CUMULATIVE VOLUMES               L**3   RATES FOR THIS TIME STEP           L**3/T
   ------------------                      ------------------------

                                     IN                                         IN
                                     --                                         --
        PRECIPITATION =                            PRECIPITATION =                  
           STREAMFLOW =                               STREAMFLOW =                  
     GW BOUNDARY FLOW =                         GW BOUNDARY FLOW =                  


                                    OUT                                        OUT
                                    ---                                        ---
   EVAPOTRANSPIRATION =         665235.99     EVAPOTRANSPIRATION =          42298.17
           STREAMFLOW =         100376.12             STREAMFLOW =           7413.75
     GW BOUNDARY FLOW =            506.61       GW BOUNDARY FLOW =             36.24

   INFLOWS - OUTFLOWS =        -766118.72     INFLOWS - OUTFLOWS =         -49748.16
             --------                                   --------

 TOTAL STORAGE CHANGE =        -764147.63         STORAGE CHANGE =         -49710.80
       --------------                             --------------
         LAND SURFACE =                             LAND SURFACE =                  
            SOIL ZONE =         -58187.20              SOIL ZONE =          -4381.89
     UNSATURATED ZONE =        -877795.87       UNSATURATED ZONE =         -52080.86
       SATURATED ZONE =         171835.43         SATURATED ZONE =           6751.94

 OVERALL BUDGET ERROR =          -1971.09           BUDGET ERROR =            -37.36


  PERCENT DISCREPANCY =             -0.26    PERCENT DISCREPANCY =             -0.08



1
 SUMMARY VOLUMETRIC BUDGET FOR GSFLOW 
 DATE: 10 21 1990              CUMULATIVE TIME STEP:      21
 MODFLOW STRESS PERIOD      2     CURRENT TIME STEP:      21     ITERATIONS:       6

 -----------------------------------------------------------------------------------

   CUMULATIVE VOLUMES               L**3   RATES FOR THIS TIME STEP           L**3/T
   ------------------                      ------------------------

                                     IN                                         IN
                                     --                                         --
        PRECIPITATION =         188432.87          PRECIPITATION =                  
           STREAMFLOW =                               STREAMFLOW =                  
     GW BOUNDARY FLOW =                         GW BOUNDARY FLOW =                  


                                    OUT                                        OUT
                                    ---                                        ---
   EVAPOTRANSPIRATION =         815642.46     EVAPOTRANSPIRATION =          41836.90
           STREAMFLOW =         163144.33             STREAMFLOW =          10143.72
     GW BOUNDARY FLOW =            760.80       GW BOUNDARY FLOW =             36.37

   INFLOWS - OUTFLOWS =        -791114.72     INFLOWS - OUTFLOWS =         -52016.99
             --------                                   --------

 TOTAL STORAGE CHANGE =        -790284.76         STORAGE CHANGE =         -52008.98
       --------------                             --------------
         LAND SURFACE =          18885.57           LAND SURFACE =         -43558.49
            SOIL ZONE =          47353.75              SOIL ZONE =           2011.82
     UNSATURATED ZONE =       -1091620.70       UNSATURATED ZONE =         -21389.21
       SATURATED ZONE =         235096.62         SATURATED ZONE =          10926.90

 OVERALL BUDGET ERROR =           -829.96           BUDGET ERROR =             -8.01


  PERCENT DISCREPANCY =             -0.08    PERCENT DISCREPANCY =             -0.02



1
 SUMMARY VOLUMETRIC BUDGET FOR GSFLOW 
 DATE: 10 28 1990              CUMULATIVE TIME STEP:      28
 MODFLOW STRESS PERIOD      2     CURRENT TIME STEP:      28     ITERATIONS:       6

 -----------------------------------------------------------------------------------

   CUMULATIVE VOLUMES               L**3   RATES FOR THIS TIME STEP           L**3/T
   ------------------                      ------------------------

                                     IN                                         IN
                                     --                                         --
        PRECIPITATION =         188432.87          PRECIPITATION =                  
           STREAMFLOW =                               STREAMFLOW =                  
     GW BOUNDARY FLOW =                         GW BOUNDARY FLOW =                  


                                    OUT                                        OUT
                                    ---                                        ---
   EVAPOTRANSPIRATION =         944467.31     EVAPOTRANSPIRATION =          11826.40
           STREAMFLOW =         224531.40             STREAMFLOW =           8915.39
     GW BOUNDARY FLOW =           1013.98       GW BOUNDARY FLOW =             36.12

   INFLOWS - OUTFLOWS =        -981579.83     INFLOWS - OUTFLOWS =         -20777.91
             --------                                   --------

 TOTAL STORAGE CHANGE =        -980640.62         STORAGE CHANGE =         -20768.64
       --------------                             --------------
         LAND SURFACE =                             LAND SURFACE =                  
            SOIL ZONE =          18301.89              SOIL ZONE =          -3431.08
     UNSATURATED ZONE =       -1275154.47       UNSATURATED ZONE =         -23226.62
       SATURATED ZONE =         276211.95         SATURATED ZONE =           5889.06

 OVERALL BUDGET ERROR =           -939.20           BUDGET ERROR =             -9.27


  PERCENT DISCREPANCY =             -0.08    PERCENT DISCREPANCY =             -0.04



1
 SUMMARY VOLUMETRIC BUDGET FOR GSFLOW 
 DATE: 11 04 1990              CUMULATIVE TIME STEP:       4
 MODFLOW STRESS PERIOD      3     CURRENT TIME STEP:      35     ITERATIONS:       6

 -----------------------------------------------------------------------------------

   CUMULATIVE VOLUMES               L**3   RATES FOR THIS TIME STEP           L**3/T
   ------------------                      ------------------------

                                     IN                                         IN
                                     --                                         --
        PRECIPITATION =         703113.06          PRECIPITATION =                  
           STREAMFLOW =                               STREAMFLOW =                  
     GW BOUNDARY FLOW =                         GW BOUNDARY FLOW =                  


                                    OUT                                        OUT
                                    ---                                        ---
   EVAPOTRANSPIRATION =        1005165.07     EVAPOTRANSPIRATION =          26361.46
           STREAMFLOW =         295099.30             STREAMFLOW =          10641.38
     GW BOUNDARY FLOW =           1267.03       GW BOUNDARY FLOW =             36.14

   INFLOWS - OUTFLOWS =        -598418.34     INFLOWS - OUTFLOWS =         -37038.98
             --------                                   --------

 TOTAL STORAGE CHANGE =        -602470.65         STORAGE CHANGE =         -38273.45
       --------------                             --------------
         LAND SURFACE =         132159.65           LAND SURFACE =        -160480.33
            SOIL ZONE =         350094.40              SOIL ZONE =         132915.28
     UNSATURATED ZONE =       -1420666.62       UNSATURATED ZONE =         -20067.41
       SATURATED ZONE =         335941.90         SATURATED ZONE =           9359.01

 OVERALL BUDGET ERROR =           4052.32           BUDGET ERROR =           1234.47

  ***WARNING, FLUX RATES OFF > 3%

  PERCENT DISCREPANCY =              0.31    PERCENT DISCREPANCY =              3.28



1
 SUMMARY VOLUMETRIC BUDGET FOR GSFLOW 
 DATE: 11 11 1990              CUMULATIVE TIME STEP:      11
 MODFLOW STRESS PERIOD      3     CURRENT TIME STEP:      42     ITERATIONS:       6

 -----------------------------------------------------------------------------------

   CUMULATIVE VOLUMES               L**3   RATES FOR THIS TIME STEP           L**3/T
   ------------------                      ------------------------

                                     IN                                         IN
                                     --                                         --
        PRECIPITATION =         703113.06          PRECIPITATION =                  
           STREAMFLOW =                               STREAMFLOW =                  
     GW BOUNDARY FLOW =                         GW BOUNDARY FLOW =                  


                                    OUT                                        OUT
                                    ---                                        ---
   EVAPOTRANSPIRATION =        1082565.81     EVAPOTRANSPIRATION =          12155.58
           STREAMFLOW =         366116.73             STREAMFLOW =           9636.88
     GW BOUNDARY FLOW =           1519.13       GW BOUNDARY FLOW =             35.92

   INFLOWS - OUTFLOWS =        -747088.61     INFLOWS - OUTFLOWS =         -21828.38
             --------                                   --------

 TOTAL STORAGE CHANGE =        -751262.34         STORAGE CHANGE =         -21819.73
       --------------                             --------------
         LAND SURFACE =            595.09           LAND SURFACE =          -1416.54
            SOIL ZONE =         422380.90              SOIL ZONE =          -5415.77
     UNSATURATED ZONE =       -1559790.22       UNSATURATED ZONE =         -19848.29
       SATURATED ZONE =         385551.86         SATURATED ZONE =           4860.86

 OVERALL BUDGET ERROR =           4173.73           BUDGET ERROR =             -8.65


  PERCENT DISCREPANCY =              0.29    PERCENT DISCREPANCY =             -0.04



1
 SUMMARY VOLUMETRIC BUDGET FOR GSFLOW 
 DATE: 11 18 1990              CUMULATIVE TIME STEP:      18
 MODFLOW STRESS PERIOD      3     CURRENT TIME STEP:      49     ITERATIONS:       6

 -----------------------------------------------------------------------------------

   CUMULATIVE VOLUMES               L**3   RATES FOR THIS TIME STEP           L**3/T
   ------------------                      ------------------------

                                     IN                                         IN
                                     --                                         --
        PRECIPITATION =         747883.35          PRECIPITATION =                  
           STREAMFLOW =                               STREAMFLOW =                  
     GW BOUNDARY FLOW =                         GW BOUNDARY FLOW =                  


                                    OUT                                        OUT
                                    ---                                        ---
   EVAPOTRANSPIRATION =        1155113.92     EVAPOTRANSPIRATION =           5078.34
           STREAMFLOW =         437789.21             STREAMFLOW =          10665.72
     GW BOUNDARY FLOW =           1770.44       GW BOUNDARY FLOW =             35.88

   INFLOWS - OUTFLOWS =        -846790.21     INFLOWS - OUTFLOWS =         -15779.93
             --------                                   --------

 TOTAL STORAGE CHANGE =        -850959.42         STORAGE CHANGE =         -15784.72
       --------------                             --------------
         LAND SURFACE =           7868.08           LAND SURFACE =          -3691.47
            SOIL ZONE =         404476.28              SOIL ZONE =           -746.00
     UNSATURATED ZONE =       -1692948.28       UNSATURATED ZONE =         -18610.37
       SATURATED ZONE =         429644.45         SATURATED ZONE =           7263.12

 OVERALL BUDGET ERROR =           4169.21           BUDGET ERROR =              4.79


  PERCENT DISCREPANCY =              0.26    PERCENT DISCREPANCY =              0.03



1
 SUMMARY VOLUMETRIC BUDGET FOR GSFLOW 
 DATE: 11 25 1990              CUMULATIVE TIME STEP:      25
 MODFLOW STRESS PERIOD      3     CURRENT TIME STEP:      56     ITERATIONS:       6

 -----------------------------------------------------------------------------------

   CUMULATIVE VOLUMES               L**3   RATES FOR THIS TIME STEP           L**3/T
   ------------------                      ------------------------

                                     IN                                         IN
                                     --                                         --
        PRECIPITATION =        1009043.38          PRECIPITATION =         186542.88
           STREAMFLOW =                               STREAMFLOW =                  
     GW BOUNDARY FLOW =                         GW BOUNDARY FLOW =                  


                                    OUT                                        OUT
                                    ---                                        ---
   EVAPOTRANSPIRATION =        1215719.40     EVAPOTRANSPIRATION =           3754.56
           STREAMFLOW =         513770.31             STREAMFLOW =          10874.41
     GW BOUNDARY FLOW =           2021.38       GW BOUNDARY FLOW =             35.79

   INFLOWS - OUTFLOWS =        -722467.71     INFLOWS - OUTFLOWS =         171878.11
             --------                                   --------

 TOTAL STORAGE CHANGE =        -728737.49         STORAGE CHANGE =         170026.48
       --------------                             --------------
         LAND SURFACE =          86180.68           LAND SURFACE =          69567.13
            SOIL ZONE =         526578.75              SOIL ZONE =         112087.65
     UNSATURATED ZONE =       -1820550.55       UNSATURATED ZONE =         -17904.91
       SATURATED ZONE =         479053.57         SATURATED ZONE =           6276.61

 OVERALL BUDGET ERROR =           6269.78           BUDGET ERROR =           1851.62


  PERCENT DISCREPANCY =              0.36    PERCENT DISCREPANCY =              1.00



1
 SUMMARY VOLUMETRIC BUDGET FOR GSFLOW 
 DATE: 12 02 1990              CUMULATIVE TIME STEP:       2
 MODFLOW STRESS PERIOD      4     CURRENT TIME STEP:      63     ITERATIONS:       6

 -----------------------------------------------------------------------------------

   CUMULATIVE VOLUMES               L**3   RATES FOR THIS TIME STEP           L**3/T
   ------------------                      ------------------------

                                     IN                                         IN
                                     --                                         --
        PRECIPITATION =        1449284.55          PRECIPITATION =                  
           STREAMFLOW =                               STREAMFLOW =                  
     GW BOUNDARY FLOW =                         GW BOUNDARY FLOW =                  


                                    OUT                                        OUT
                                    ---                                        ---
   EVAPOTRANSPIRATION =        1222236.43     EVAPOTRANSPIRATION =            236.02
           STREAMFLOW =         590977.24             STREAMFLOW =          11070.45
     GW BOUNDARY FLOW =           2271.87       GW BOUNDARY FLOW =             35.77

   INFLOWS - OUTFLOWS =        -366200.99     INFLOWS - OUTFLOWS =         -11342.24
             --------                                   --------

 TOTAL STORAGE CHANGE =        -373585.59         STORAGE CHANGE =         -11353.74
       --------------                             --------------
         LAND SURFACE =         486845.62           LAND SURFACE =           -339.04
            SOIL ZONE =         558838.88              SOIL ZONE =            142.34
     UNSATURATED ZONE =       -1943397.69       UNSATURATED ZONE =         -17255.24
       SATURATED ZONE =         524127.52         SATURATED ZONE =           6098.20

 OVERALL BUDGET ERROR =           7384.60           BUDGET ERROR =             11.50


  PERCENT DISCREPANCY =              0.41    PERCENT DISCREPANCY =              0.10



1
 SUMMARY VOLUMETRIC BUDGET FOR GSFLOW 
 DATE: 12 09 1990              CUMULATIVE TIME STEP:       9
 MODFLOW STRESS PERIOD      4     CURRENT TIME STEP:      70     ITERATIONS:       6

 -----------------------------------------------------------------------------------

   CUMULATIVE VOLUMES               L**3   RATES FOR THIS TIME STEP           L**3/T
   ------------------                      ------------------------

                                     IN                                         IN
                                     --                                         --
        PRECIPITATION =        1449284.55          PRECIPITATION =                  
           STREAMFLOW =                               STREAMFLOW =                  
     GW BOUNDARY FLOW =                         GW BOUNDARY FLOW =                  


                                    OUT                                        OUT
                                    ---                                        ---
   EVAPOTRANSPIRATION =        1298324.92     EVAPOTRANSPIRATION =          13898.38
           STREAMFLOW =         668714.98             STREAMFLOW =          10915.97
     GW BOUNDARY FLOW =           2521.83       GW BOUNDARY FLOW =             35.65

   INFLOWS - OUTFLOWS =        -520277.19     INFLOWS - OUTFLOWS =         -24850.00
             --------                                   --------

 TOTAL STORAGE CHANGE =        -532026.46         STORAGE CHANGE =         -24943.78
       --------------                             --------------
         LAND SURFACE =          67215.41           LAND SURFACE =         -45889.70
            SOIL ZONE =         901370.49              SOIL ZONE =          33526.75
     UNSATURATED ZONE =       -2061244.34       UNSATURATED ZONE =         -16493.31
       SATURATED ZONE =         560631.88         SATURATED ZONE =           3912.47

 OVERALL BUDGET ERROR =          11749.27           BUDGET ERROR =             93.78


  PERCENT DISCREPANCY =              0.59    PERCENT DISCREPANCY =              0.38



1
 SUMMARY VOLUMETRIC BUDGET FOR GSFLOW 
 DATE: 12 16 1990              CUMULATIVE TIME STEP:      16
 MODFLOW STRESS PERIOD      4     CURRENT TIME STEP:      77     ITERATIONS:       5

 -----------------------------------------------------------------------------------

   CUMULATIVE VOLUMES               L**3   RATES FOR THIS TIME STEP           L**3/T
   ------------------                      ------------------------

                                     IN                                         IN
                                     --                                         --
        PRECIPITATION =        1804962.84          PRECIPITATION =                  
           STREAMFLOW =                               STREAMFLOW =                  
     GW BOUNDARY FLOW =                         GW BOUNDARY FLOW =                  


                                    OUT                                        OUT
                                    ---                                        ---
   EVAPOTRANSPIRATION =        1326661.98     EVAPOTRANSPIRATION =                  
           STREAMFLOW =         748411.25             STREAMFLOW =          11516.67
     GW BOUNDARY FLOW =           2771.24       GW BOUNDARY FLOW =             35.61

   INFLOWS - OUTFLOWS =        -272881.63     INFLOWS - OUTFLOWS =         -11552.28
             --------                                   --------

 TOTAL STORAGE CHANGE =        -286892.13         STORAGE CHANGE =         -11567.42
       --------------                             --------------
         LAND SURFACE =         252566.26           LAND SURFACE =                  
            SOIL ZONE =        1043781.13              SOIL ZONE =            -32.96
     UNSATURATED ZONE =       -2174584.81       UNSATURATED ZONE =         -15930.34
       SATURATED ZONE =         591345.13         SATURATED ZONE =           4395.87

 OVERALL BUDGET ERROR =          14010.51           BUDGET ERROR =             15.14


  PERCENT DISCREPANCY =              0.67    PERCENT DISCREPANCY =              0.13



1
 SUMMARY VOLUMETRIC BUDGET FOR GSFLOW 
 DATE: 12 23 1990              CUMULATIVE TIME STEP:      23
 MODFLOW STRESS PERIOD      4     CURRENT TIME STEP:      84     ITERATIONS:       6

 -----------------------------------------------------------------------------------

   CUMULATIVE VOLUMES               L**3   RATES FOR THIS TIME STEP           L**3/T
   ------------------                      ------------------------

                                     IN                                         IN
                                     --                                         --
        PRECIPITATION =        2276236.55          PRECIPITATION =                  
           STREAMFLOW =                               STREAMFLOW =                  
     GW BOUNDARY FLOW =              0.08       GW BOUNDARY FLOW =              0.04


                                    OUT                                        OUT
                                    ---                                        ---
   EVAPOTRANSPIRATION =        1327723.93     EVAPOTRANSPIRATION =                  
           STREAMFLOW =         829206.66             STREAMFLOW =          11564.91
     GW BOUNDARY FLOW =           3020.27       GW BOUNDARY FLOW =             35.57

   INFLOWS - OUTFLOWS =         116285.77     INFLOWS - OUTFLOWS =         -11600.44
             --------                                   --------

 TOTAL STORAGE CHANGE =         102185.62         STORAGE CHANGE =         -11612.27
       --------------                             --------------
         LAND SURFACE =         722784.34           LAND SURFACE =                  
            SOIL ZONE =        1043898.52              SOIL ZONE =             46.61
     UNSATURATED ZONE =       -2283782.45       UNSATURATED ZONE =         -15355.39
       SATURATED ZONE =         619285.02         SATURATED ZONE =           3696.50

 OVERALL BUDGET ERROR =          14100.15           BUDGET ERROR =             11.83


  PERCENT DISCREPANCY =              0.62    PERCENT DISCREPANCY =              0.10



1
 SUMMARY VOLUMETRIC BUDGET FOR GSFLOW 
 DATE: 12 30 1990              CUMULATIVE TIME STEP:      30
 MODFLOW STRESS PERIOD      4     CURRENT TIME STEP:      91     ITERATIONS:       5

 -----------------------------------------------------------------------------------

   CUMULATIVE VOLUMES               L**3   RATES FOR THIS TIME STEP           L**3/T
   ------------------                      ------------------------

                                     IN                                         IN
                                     --                                         --
        PRECIPITATION =        2276236.55          PRECIPITATION =                  
           STREAMFLOW =                               STREAMFLOW =                  
     GW BOUNDARY FLOW =              0.77       GW BOUNDARY FLOW =              0.14


                                    OUT                                        OUT
                                    ---                                        ---
   EVAPOTRANSPIRATION =        1328294.09     EVAPOTRANSPIRATION =                  
           STREAMFLOW =         910411.94             STREAMFLOW =          11631.92
     GW BOUNDARY FLOW =           3269.38       GW BOUNDARY FLOW =             35.60

   INFLOWS - OUTFLOWS =          34261.90     INFLOWS - OUTFLOWS =         -11667.38
             --------                                   --------

 TOTAL STORAGE CHANGE =          20090.21         STORAGE CHANGE =         -11676.95
       --------------                             --------------
         LAND SURFACE =         722216.94           LAND SURFACE =                  
            SOIL ZONE =        1044426.83              SOIL ZONE =             94.69
     UNSATURATED ZONE =       -2389068.56       UNSATURATED ZONE =         -14806.28
       SATURATED ZONE =         642514.77         SATURATED ZONE =           3034.64

 OVERALL BUDGET ERROR =          14171.69           BUDGET ERROR =              9.57


  PERCENT DISCREPANCY =              0.62    PERCENT DISCREPANCY =              0.08



1
 SUMMARY VOLUMETRIC BUDGET FOR GSFLOW 
 DATE: 01 06 1991              CUMULATIVE TIME STEP:       6
 MODFLOW STRESS PERIOD      5     CURRENT TIME STEP:      98     ITERATIONS:       5

 -----------------------------------------------------------------------------------

   CUMULATIVE VOLUMES               L**3   RATES FOR THIS TIME STEP           L**3/T
   ------------------                      ------------------------

                                     IN                                         IN
                                     --                                         --
        PRECIPITATION =        2276236.55          PRECIPITATION =                  
           STREAMFLOW =                               STREAMFLOW =                  
     GW BOUNDARY FLOW =              2.09       GW BOUNDARY FLOW =              0.22


                                    OUT                                        OUT
                                    ---                                        ---
   EVAPOTRANSPIRATION =        1355377.79     EVAPOTRANSPIRATION =           3191.05
           STREAMFLOW =         992289.31             STREAMFLOW =          11738.69
     GW BOUNDARY FLOW =           3519.27       GW BOUNDARY FLOW =             35.75

   INFLOWS - OUTFLOWS =         -74947.73     INFLOWS - OUTFLOWS =         -14965.27
             --------                                   --------

 TOTAL STORAGE CHANGE =         -91669.32         STORAGE CHANGE =         -15097.54
       --------------                             --------------
         LAND SURFACE =         592099.77           LAND SURFACE =          -8106.31
            SOIL ZONE =        1145680.84              SOIL ZONE =           4881.98
     UNSATURATED ZONE =       -2490421.59       UNSATURATED ZONE =         -14246.18
       SATURATED ZONE =         660971.39         SATURATED ZONE =           2372.96

 OVERALL BUDGET ERROR =          16721.59           BUDGET ERROR =            132.27


  PERCENT DISCREPANCY =              0.71    PERCENT DISCREPANCY =              0.88



1
 SUMMARY VOLUMETRIC BUDGET FOR GSFLOW 
 DATE: 01 13 1991              CUMULATIVE TIME STEP:      13
 MODFLOW STRESS PERIOD      5     CURRENT TIME STEP:     105     ITERATIONS:       6

 -----------------------------------------------------------------------------------

   CUMULATIVE VOLUMES               L**3   RATES FOR THIS TIME STEP           L**3/T
   ------------------                      ------------------------

                                     IN                                         IN
                                     --                                         --
        PRECIPITATION =        2596386.94          PRECIPITATION =          10327.43
           STREAMFLOW =                               STREAMFLOW =                  
     GW BOUNDARY FLOW =              4.01       GW BOUNDARY FLOW =              0.31


                                    OUT                                        OUT
                                    ---                                        ---
   EVAPOTRANSPIRATION =        1422325.69     EVAPOTRANSPIRATION =          18640.94
           STREAMFLOW =        1074609.30             STREAMFLOW =          11738.63
     GW BOUNDARY FLOW =           3769.49       GW BOUNDARY FLOW =             35.73

   INFLOWS - OUTFLOWS =          95686.47     INFLOWS - OUTFLOWS =         -20087.56
             --------                                   --------

 TOTAL STORAGE CHANGE =          74017.78         STORAGE CHANGE =         -21311.71
       --------------                             --------------
         LAND SURFACE =         529885.07           LAND SURFACE =        -135264.71
            SOIL ZONE =        1458046.83              SOIL ZONE =         126525.53
     UNSATURATED ZONE =       -2587707.99       UNSATURATED ZONE =         -13692.75
       SATURATED ZONE =         673793.54         SATURATED ZONE =           1120.20

 OVERALL BUDGET ERROR =          21668.69           BUDGET ERROR =           1224.15

  ***WARNING, FLUX RATES OFF > 3%

  PERCENT DISCREPANCY =              0.84    PERCENT DISCREPANCY =              3.95



1
 SUMMARY VOLUMETRIC BUDGET FOR GSFLOW 
 DATE: 01 20 1991              CUMULATIVE TIME STEP:      20
 MODFLOW STRESS PERIOD      5     CURRENT TIME STEP:     112     ITERATIONS:       5

 -----------------------------------------------------------------------------------

   CUMULATIVE VOLUMES               L**3   RATES FOR THIS TIME STEP           L**3/T
   ------------------                      ------------------------

                                     IN                                         IN
                                     --                                         --
        PRECIPITATION =        2596386.94          PRECIPITATION =                  
           STREAMFLOW =                               STREAMFLOW =                  
     GW BOUNDARY FLOW =              6.54       GW BOUNDARY FLOW =              0.40


                                    OUT                                        OUT
                                    ---                                        ---
   EVAPOTRANSPIRATION =        1499700.20     EVAPOTRANSPIRATION =           2461.50
           STREAMFLOW =        1157775.44             STREAMFLOW =          11899.36
     GW BOUNDARY FLOW =           4019.71       GW BOUNDARY FLOW =             35.74

   INFLOWS - OUTFLOWS =         -65101.87     INFLOWS - OUTFLOWS =         -14396.20
             --------                                   --------

 TOTAL STORAGE CHANGE =         -87538.44         STORAGE CHANGE =         -14395.27
       --------------                             --------------
         LAND SURFACE =         356897.60           LAND SURFACE =           -433.81
            SOIL ZONE =        1553609.36              SOIL ZONE =          -1970.62
     UNSATURATED ZONE =       -2681103.52       UNSATURATED ZONE =         -13122.49
       SATURATED ZONE =         683057.74         SATURATED ZONE =           1131.64

 OVERALL BUDGET ERROR =          22436.57           BUDGET ERROR =             -0.94


  PERCENT DISCREPANCY =              0.84    PERCENT DISCREPANCY =             -0.01



1
 SUMMARY VOLUMETRIC BUDGET FOR GSFLOW 
 DATE: 01 27 1991              CUMULATIVE TIME STEP:      27
 MODFLOW STRESS PERIOD      5     CURRENT TIME STEP:     119     ITERATIONS:       5

 -----------------------------------------------------------------------------------

   CUMULATIVE VOLUMES               L**3   RATES FOR THIS TIME STEP           L**3/T
   ------------------                      ------------------------

                                     IN                                         IN
                                     --                                         --
        PRECIPITATION =        2596386.94          PRECIPITATION =                  
           STREAMFLOW =                               STREAMFLOW =                  
     GW BOUNDARY FLOW =              9.65       GW BOUNDARY FLOW =              0.48


                                    OUT                                        OUT
                                    ---                                        ---
   EVAPOTRANSPIRATION =        1525602.04     EVAPOTRANSPIRATION =           1702.93
           STREAMFLOW =        1241015.39             STREAMFLOW =          11916.87
     GW BOUNDARY FLOW =           4269.88       GW BOUNDARY FLOW =             35.74

   INFLOWS - OUTFLOWS =        -174490.71     INFLOWS - OUTFLOWS =         -13655.06
             --------                                   --------

 TOTAL STORAGE CHANGE =        -197142.95         STORAGE CHANGE =         -13666.81
       --------------                             --------------
         LAND SURFACE =         323033.09           LAND SURFACE =           -547.84
            SOIL ZONE =        1562285.76              SOIL ZONE =          -1065.63
     UNSATURATED ZONE =       -2771022.16       UNSATURATED ZONE =         -12627.92
       SATURATED ZONE =         688559.92         SATURATED ZONE =            574.57

 OVERALL BUDGET ERROR =          22652.23           BUDGET ERROR =             11.75


  PERCENT DISCREPANCY =              0.81    PERCENT DISCREPANCY =              0.09



1
 SUMMARY VOLUMETRIC BUDGET FOR GSFLOW 
 DATE: 02 03 1991              CUMULATIVE TIME STEP:       3
 MODFLOW STRESS PERIOD      6     CURRENT TIME STEP:     126     ITERATIONS:       6

 -----------------------------------------------------------------------------------

   CUMULATIVE VOLUMES               L**3   RATES FOR THIS TIME STEP           L**3/T
   ------------------                      ------------------------

                                     IN                                         IN
                                     --                                         --
        PRECIPITATION =        3228422.31          PRECIPITATION =          30459.53
           STREAMFLOW =                               STREAMFLOW =                  
     GW BOUNDARY FLOW =             13.31       GW BOUNDARY FLOW =              0.55


                                    OUT                                        OUT
                                    ---                                        ---
   EVAPOTRANSPIRATION =        1632614.51     EVAPOTRANSPIRATION =          21403.89
           STREAMFLOW =        1325825.68             STREAMFLOW =          12243.09
     GW BOUNDARY FLOW =           4519.98       GW BOUNDARY FLOW =             35.74

   INFLOWS - OUTFLOWS =         265475.44     INFLOWS - OUTFLOWS =          -3222.63
             --------                                   --------

 TOTAL STORAGE CHANGE =         235853.92         STORAGE CHANGE =          -3502.94
       --------------                             --------------
         LAND SURFACE =         157683.43           LAND SURFACE =         -26376.35
            SOIL ZONE =        2246084.29              SOIL ZONE =          35065.49
     UNSATURATED ZONE =       -2857622.57       UNSATURATED ZONE =         -12195.11
       SATURATED ZONE =         689708.26         SATURATED ZONE =              3.02

 OVERALL BUDGET ERROR =          29621.52           BUDGET ERROR =            280.31


  PERCENT DISCREPANCY =              0.92    PERCENT DISCREPANCY =              0.83



1
 SUMMARY VOLUMETRIC BUDGET FOR GSFLOW 
 DATE: 02 10 1991              CUMULATIVE TIME STEP:      10
 MODFLOW STRESS PERIOD      6     CURRENT TIME STEP:     133     ITERATIONS:       5

 -----------------------------------------------------------------------------------

   CUMULATIVE VOLUMES               L**3   RATES FOR THIS TIME STEP           L**3/T
   ------------------                      ------------------------

                                     IN                                         IN
                                     --                                         --
        PRECIPITATION =        3510173.01          PRECIPITATION =                  
           STREAMFLOW =                               STREAMFLOW =                  
     GW BOUNDARY FLOW =             17.48       GW BOUNDARY FLOW =              0.63


                                    OUT                                        OUT
                                    ---                                        ---
   EVAPOTRANSPIRATION =        1800397.07     EVAPOTRANSPIRATION =          25669.06
           STREAMFLOW =        1412006.49             STREAMFLOW =          12168.52
     GW BOUNDARY FLOW =           4770.07       GW BOUNDARY FLOW =             35.72

   INFLOWS - OUTFLOWS =         293016.87     INFLOWS - OUTFLOWS =         -37872.68
             --------                                   --------

 TOTAL STORAGE CHANGE =         260811.18         STORAGE CHANGE =         -37797.62
       --------------                             --------------
         LAND SURFACE =          75877.11           LAND SURFACE =          -8469.89
            SOIL ZONE =        2437813.34              SOIL ZONE =         -17129.44
     UNSATURATED ZONE =       -2940792.03       UNSATURATED ZONE =         -11688.97
       SATURATED ZONE =         687912.17         SATURATED ZONE =           -509.33

 OVERALL BUDGET ERROR =          32205.69           BUDGET ERROR =            -75.06


  PERCENT DISCREPANCY =              0.92    PERCENT DISCREPANCY =             -0.20



1
 SUMMARY VOLUMETRIC BUDGET FOR GSFLOW 
 DATE: 02 17 1991              CUMULATIVE TIME STEP:      17
 MODFLOW STRESS PERIOD      6     CURRENT TIME STEP:     140     ITERATIONS:       5

 -----------------------------------------------------------------------------------

   CUMULATIVE VOLUMES               L**3   RATES FOR THIS TIME STEP           L**3/T
   ------------------                      ------------------------

                                     IN                                         IN
                                     --                                         --
        PRECIPITATION =        3510173.01          PRECIPITATION =                  
           STREAMFLOW =                               STREAMFLOW =                  
     GW BOUNDARY FLOW =             22.16       GW BOUNDARY FLOW =              0.70


                                    OUT                                        OUT
                                    ---                                        ---
   EVAPOTRANSPIRATION =        2043455.97     EVAPOTRANSPIRATION =          23705.62
           STREAMFLOW =        1496734.19             STREAMFLOW =          12101.49
     GW BOUNDARY FLOW =           5020.00       GW BOUNDARY FLOW =             35.68

   INFLOWS - OUTFLOWS =         -35015.00     INFLOWS - OUTFLOWS =         -35842.08
             --------                                   --------

 TOTAL STORAGE CHANGE =         -66454.33         STORAGE CHANGE =         -35766.25
       --------------                             --------------
         LAND SURFACE =          17890.99           LAND SURFACE =          -1143.67
            SOIL ZONE =        2253951.73              SOIL ZONE =         -22482.14
     UNSATURATED ZONE =       -3020421.13       UNSATURATED ZONE =         -11093.39
       SATURATED ZONE =         682123.40         SATURATED ZONE =          -1047.07

 OVERALL BUDGET ERROR =          31439.33           BUDGET ERROR =            -75.84


  PERCENT DISCREPANCY =              0.88    PERCENT DISCREPANCY =             -0.21



1
 SUMMARY VOLUMETRIC BUDGET FOR GSFLOW 
 DATE: 02 24 1991              CUMULATIVE TIME STEP:      24
 MODFLOW STRESS PERIOD      6     CURRENT TIME STEP:     147     ITERATIONS:       5

 -----------------------------------------------------------------------------------

   CUMULATIVE VOLUMES               L**3   RATES FOR THIS TIME STEP           L**3/T
   ------------------                      ------------------------

                                     IN                                         IN
                                     --                                         --
        PRECIPITATION =        3510173.01          PRECIPITATION =                  
           STREAMFLOW =                               STREAMFLOW =                  
     GW BOUNDARY FLOW =             27.30       GW BOUNDARY FLOW =              0.76


                                    OUT                                        OUT
                                    ---                                        ---
   EVAPOTRANSPIRATION =        2256887.48     EVAPOTRANSPIRATION =          21630.85
           STREAMFLOW =        1580770.17             STREAMFLOW =          11968.73
     GW BOUNDARY FLOW =           5268.91       GW BOUNDARY FLOW =             35.48

   INFLOWS - OUTFLOWS =        -332726.25     INFLOWS - OUTFLOWS =         -33634.30
             --------                                   --------

 TOTAL STORAGE CHANGE =        -363468.25         STORAGE CHANGE =         -33561.69
       --------------                             --------------
         LAND SURFACE =           7435.72           LAND SURFACE =           -217.69
            SOIL ZONE =        2052978.28              SOIL ZONE =         -21048.54
     UNSATURATED ZONE =       -3096405.90       UNSATURATED ZONE =         -10677.83
       SATURATED ZONE =         672522.88         SATURATED ZONE =          -1617.64

 OVERALL BUDGET ERROR =          30742.00           BUDGET ERROR =            -72.62


  PERCENT DISCREPANCY =              0.80    PERCENT DISCREPANCY =             -0.22



1
 SUMMARY VOLUMETRIC BUDGET FOR GSFLOW 
 DATE: 03 03 1991              CUMULATIVE TIME STEP:       3
 MODFLOW STRESS PERIOD      7     CURRENT TIME STEP:     154     ITERATIONS:       5

 -----------------------------------------------------------------------------------

   CUMULATIVE VOLUMES               L**3   RATES FOR THIS TIME STEP           L**3/T
   ------------------                      ------------------------

                                     IN                                         IN
                                     --                                         --
        PRECIPITATION =        6220189.63          PRECIPITATION =        1243187.24
           STREAMFLOW =                               STREAMFLOW =                  
     GW BOUNDARY FLOW =             32.90       GW BOUNDARY FLOW =              0.83


                                    OUT                                        OUT
                                    ---                                        ---
   EVAPOTRANSPIRATION =        2408954.79     EVAPOTRANSPIRATION =           8455.65
           STREAMFLOW =        1664314.08             STREAMFLOW =          12329.37
     GW BOUNDARY FLOW =           5516.61       GW BOUNDARY FLOW =             35.34

   INFLOWS - OUTFLOWS =        2141437.06     INFLOWS - OUTFLOWS =        1222367.71
             --------                                   --------

 TOTAL STORAGE CHANGE =        2103667.92         STORAGE CHANGE =        1214889.24
       --------------                             --------------
         LAND SURFACE =        2352761.88           LAND SURFACE =         894135.84
            SOIL ZONE =        2262855.05              SOIL ZONE =         333412.26
     UNSATURATED ZONE =       -3169306.67       UNSATURATED ZONE =         -10273.06
       SATURATED ZONE =         657356.80         SATURATED ZONE =          -2385.82

 OVERALL BUDGET ERROR =          37769.14           BUDGET ERROR =           7478.47


  PERCENT DISCREPANCY =              0.61    PERCENT DISCREPANCY =              0.60



1
 SUMMARY VOLUMETRIC BUDGET FOR GSFLOW 
 DATE: 03 10 1991              CUMULATIVE TIME STEP:      10
 MODFLOW STRESS PERIOD      7     CURRENT TIME STEP:     161     ITERATIONS:       5

 -----------------------------------------------------------------------------------

   CUMULATIVE VOLUMES               L**3   RATES FOR THIS TIME STEP           L**3/T
   ------------------                      ------------------------

                                     IN                                         IN
                                     --                                         --
        PRECIPITATION =        8746030.42          PRECIPITATION =          32888.55
           STREAMFLOW =                               STREAMFLOW =                  
     GW BOUNDARY FLOW =             38.94       GW BOUNDARY FLOW =              0.89


                                    OUT                                        OUT
                                    ---                                        ---
   EVAPOTRANSPIRATION =        2482250.31     EVAPOTRANSPIRATION =           8863.45
           STREAMFLOW =        1847425.92             STREAMFLOW =          21777.41
     GW BOUNDARY FLOW =           5765.51       GW BOUNDARY FLOW =             35.44

   INFLOWS - OUTFLOWS =        4410627.61     INFLOWS - OUTFLOWS =           2213.13
             --------                                   --------

 TOTAL STORAGE CHANGE =        4340295.13         STORAGE CHANGE =           1118.77
       --------------                             --------------
         LAND SURFACE =        2523463.28           LAND SURFACE =         -14137.08
            SOIL ZONE =        4355870.68              SOIL ZONE =          18679.09
     UNSATURATED ZONE =       -3191009.12       UNSATURATED ZONE =          -2085.38
       SATURATED ZONE =         651969.24         SATURATED ZONE =          -1337.89

 OVERALL BUDGET ERROR =          70332.48           BUDGET ERROR =           1094.36

  ***WARNING, FLUX RATES OFF > 3%

  PERCENT DISCREPANCY =              0.81    PERCENT DISCREPANCY =              3.38



1
 SUMMARY VOLUMETRIC BUDGET FOR GSFLOW 
 DATE: 03 17 1991              CUMULATIVE TIME STEP:      17
 MODFLOW STRESS PERIOD      7     CURRENT TIME STEP:     168     ITERATIONS:       5

 -----------------------------------------------------------------------------------

   CUMULATIVE VOLUMES               L**3   RATES FOR THIS TIME STEP           L**3/T
   ------------------                      ------------------------

                                     IN                                         IN
                                     --                                         --
        PRECIPITATION =        9897129.71          PRECIPITATION =         157865.04
           STREAMFLOW =                               STREAMFLOW =                  
     GW BOUNDARY FLOW =             45.38       GW BOUNDARY FLOW =              0.95


                                    OUT                                        OUT
                                    ---                                        ---
   EVAPOTRANSPIRATION =        2510088.75     EVAPOTRANSPIRATION =           8079.62
           STREAMFLOW =        1987955.17             STREAMFLOW =          19447.51
     GW BOUNDARY FLOW =           6012.75       GW BOUNDARY FLOW =             35.24

   INFLOWS - OUTFLOWS =        5393118.43     INFLOWS - OUTFLOWS =         130303.61
             --------                                   --------

 TOTAL STORAGE CHANGE =        5321339.05         STORAGE CHANGE =         130126.01
       --------------                             --------------
         LAND SURFACE =        3672302.31           LAND SURFACE =         157496.61
            SOIL ZONE =        4218708.85              SOIL ZONE =         -22427.40
     UNSATURATED ZONE =       -3209108.16       UNSATURATED ZONE =          -2874.49
       SATURATED ZONE =         639434.77         SATURATED ZONE =          -2068.74

 OVERALL BUDGET ERROR =          71779.37           BUDGET ERROR =            177.60


  PERCENT DISCREPANCY =              0.73    PERCENT DISCREPANCY =              0.11



1
 SUMMARY VOLUMETRIC BUDGET FOR GSFLOW 
 DATE: 03 24 1991              CUMULATIVE TIME STEP:      24
 MODFLOW STRESS PERIOD      7     CURRENT TIME STEP:     175     ITERATIONS:       5

 -----------------------------------------------------------------------------------

   CUMULATIVE VOLUMES               L**3   RATES FOR THIS TIME STEP           L**3/T
   ------------------                      ------------------------

                                     IN                                         IN
                                     --                                         --
        PRECIPITATION =        1.1673D+07          PRECIPITATION =        1230031.83
           STREAMFLOW =                               STREAMFLOW =                  
     GW BOUNDARY FLOW =             52.23       GW BOUNDARY FLOW =              1.00


                                    OUT                                        OUT
                                    ---                                        ---
   EVAPOTRANSPIRATION =        2548914.13     EVAPOTRANSPIRATION =           4663.35
           STREAMFLOW =        2120138.29             STREAMFLOW =          18590.97
     GW BOUNDARY FLOW =           6258.79       GW BOUNDARY FLOW =             35.08

   INFLOWS - OUTFLOWS =        6997852.54     INFLOWS - OUTFLOWS =        1206743.44
             --------                                   --------

 TOTAL STORAGE CHANGE =        6924165.57         STORAGE CHANGE =        1206575.25
       --------------                             --------------
         LAND SURFACE =        5426161.22           LAND SURFACE =        1230031.83
            SOIL ZONE =        4107559.88              SOIL ZONE =         -17327.19
     UNSATURATED ZONE =       -3232767.39       UNSATURATED ZONE =          -3632.40
       SATURATED ZONE =         623210.37         SATURATED ZONE =          -2497.02

 OVERALL BUDGET ERROR =          73686.97           BUDGET ERROR =            168.19


  PERCENT DISCREPANCY =              0.63    PERCENT DISCREPANCY =              0.01



1
 SUMMARY VOLUMETRIC BUDGET FOR GSFLOW 
 DATE: 03 31 1991              CUMULATIVE TIME STEP:      31
 MODFLOW STRESS PERIOD      7     CURRENT TIME STEP:     182     ITERATIONS:       6

 -----------------------------------------------------------------------------------

   CUMULATIVE VOLUMES               L**3   RATES FOR THIS TIME STEP           L**3/T
   ------------------                      ------------------------

                                     IN                                         IN
                                     --                                         --
        PRECIPITATION =        1.2495D+07          PRECIPITATION =                  
           STREAMFLOW =                               STREAMFLOW =                  
     GW BOUNDARY FLOW =             59.47       GW BOUNDARY FLOW =              1.06


                                    OUT                                        OUT
                                    ---                                        ---
   EVAPOTRANSPIRATION =        2670676.09     EVAPOTRANSPIRATION =          48053.54
           STREAMFLOW =        2252291.21             STREAMFLOW =          21915.48
     GW BOUNDARY FLOW =           6503.84       GW BOUNDARY FLOW =             35.01

   INFLOWS - OUTFLOWS =        7565913.62     INFLOWS - OUTFLOWS =         -70002.97
             --------                                   --------

 TOTAL STORAGE CHANGE =        7486606.67         STORAGE CHANGE =         -72966.72
       --------------                             --------------
         LAND SURFACE =        5977198.26           LAND SURFACE =        -148137.48
            SOIL ZONE =        4162350.99              SOIL ZONE =          80468.57
     UNSATURATED ZONE =       -3257886.07       UNSATURATED ZONE =          -2598.29
       SATURATED ZONE =         604941.80         SATURATED ZONE =          -2699.55

 OVERALL BUDGET ERROR =          79306.95           BUDGET ERROR =           2963.75

  ***WARNING, FLUX RATES OFF > 3%

  PERCENT DISCREPANCY =              0.64    PERCENT DISCREPANCY =              4.15



1
 SUMMARY VOLUMETRIC BUDGET FOR GSFLOW 
 DATE: 04 07 1991              CUMULATIVE TIME STEP:       7
 MODFLOW STRESS PERIOD      8     CURRENT TIME STEP:     189     ITERATIONS:       7

 -----------------------------------------------------------------------------------

   CUMULATIVE VOLUMES               L**3   RATES FOR THIS TIME STEP           L**3/T
   ------------------                      ------------------------

                                     IN                                         IN
                                     --                                         --
        PRECIPITATION =        1.3018D+07          PRECIPITATION =                  
           STREAMFLOW =                               STREAMFLOW =                  
     GW BOUNDARY FLOW =             67.08       GW BOUNDARY FLOW =              1.11


                                    OUT                                        OUT
                                    ---                                        ---
   EVAPOTRANSPIRATION =        2978768.27     EVAPOTRANSPIRATION =          15960.30
           STREAMFLOW =        2563598.22             STREAMFLOW =          62032.18
     GW BOUNDARY FLOW =           6751.14       GW BOUNDARY FLOW =             35.58

   INFLOWS - OUTFLOWS =        7468686.19     INFLOWS - OUTFLOWS =         -78026.95
             --------                                   --------

 TOTAL STORAGE CHANGE =        7352143.10         STORAGE CHANGE =         -80746.41
       --------------                             --------------
         LAND SURFACE =        4335933.24           LAND SURFACE =         -73164.41
            SOIL ZONE =        5662796.65              SOIL ZONE =         -14534.29
     UNSATURATED ZONE =       -3235950.95       UNSATURATED ZONE =           9018.54
       SATURATED ZONE =         589362.21         SATURATED ZONE =          -2066.29

 OVERALL BUDGET ERROR =         116543.08           BUDGET ERROR =           2719.45

  ***WARNING, FLUX RATES OFF > 3%

  PERCENT DISCREPANCY =              0.90    PERCENT DISCREPANCY =              3.43



1
 SUMMARY VOLUMETRIC BUDGET FOR GSFLOW 
 DATE: 04 14 1991              CUMULATIVE TIME STEP:      14
 MODFLOW STRESS PERIOD      8     CURRENT TIME STEP:     196     ITERATIONS:       7

 -----------------------------------------------------------------------------------

   CUMULATIVE VOLUMES               L**3   RATES FOR THIS TIME STEP           L**3/T
   ------------------                      ------------------------

                                     IN                                         IN
                                     --                                         --
        PRECIPITATION =        1.3018D+07          PRECIPITATION =                  
           STREAMFLOW =                               STREAMFLOW =                  
     GW BOUNDARY FLOW =             75.01       GW BOUNDARY FLOW =              1.15


                                    OUT                                        OUT
                                    ---                                        ---
   EVAPOTRANSPIRATION =        3162879.11     EVAPOTRANSPIRATION =          42037.36
           STREAMFLOW =        3041772.63             STREAMFLOW =          72760.90
     GW BOUNDARY FLOW =           7000.25       GW BOUNDARY FLOW =             35.60

   INFLOWS - OUTFLOWS =        6806159.76     INFLOWS - OUTFLOWS =        -114832.70
             --------                                   --------

 TOTAL STORAGE CHANGE =        6666682.46         STORAGE CHANGE =        -119627.58
       --------------                             --------------
         LAND SURFACE =        3672284.11           LAND SURFACE =        -192335.10
            SOIL ZONE =        5595154.10              SOIL ZONE =          66546.07
     UNSATURATED ZONE =       -3176499.54       UNSATURATED ZONE =           7947.78
       SATURATED ZONE =         575741.50         SATURATED ZONE =          -1786.38

 OVERALL BUDGET ERROR =         139477.30           BUDGET ERROR =           4794.88

  ***WARNING, FLUX RATES OFF > 3%

  PERCENT DISCREPANCY =              1.08    PERCENT DISCREPANCY =              4.09



1
 SUMMARY VOLUMETRIC BUDGET FOR GSFLOW 
 DATE: 04 21 1991              CUMULATIVE TIME STEP:      21
 MODFLOW STRESS PERIOD      8     CURRENT TIME STEP:     203     ITERATIONS:       9

 -----------------------------------------------------------------------------------

   CUMULATIVE VOLUMES               L**3   RATES FOR THIS TIME STEP           L**3/T
   ------------------                      ------------------------

                                     IN                                         IN
                                     --                                         --
        PRECIPITATION =        1.3034D+07          PRECIPITATION =                  
           STREAMFLOW =                               STREAMFLOW =                  
     GW BOUNDARY FLOW =             83.25       GW BOUNDARY FLOW =              1.19


                                    OUT                                        OUT
                                    ---                                        ---
   EVAPOTRANSPIRATION =        3416513.75     EVAPOTRANSPIRATION =          46895.54
           STREAMFLOW =        3591655.85             STREAMFLOW =          89807.75
     GW BOUNDARY FLOW =           7249.56       GW BOUNDARY FLOW =             35.72

   INFLOWS - OUTFLOWS =        6018726.18     INFLOWS - OUTFLOWS =        -136737.82
             --------                                   --------

 TOTAL STORAGE CHANGE =        5848620.26         STORAGE CHANGE =        -141826.68
       --------------                             --------------
         LAND SURFACE =        2500870.94           LAND SURFACE =        -216968.59
            SOIL ZONE =        5899695.84              SOIL ZONE =          66399.32
     UNSATURATED ZONE =       -3115569.94       UNSATURATED ZONE =          10222.65
       SATURATED ZONE =         563620.78         SATURATED ZONE =          -1480.11

 OVERALL BUDGET ERROR =         170105.92           BUDGET ERROR =           5088.86

  ***WARNING, FLUX RATES OFF > 3%

  PERCENT DISCREPANCY =              1.31    PERCENT DISCREPANCY =              3.65



1
 SUMMARY VOLUMETRIC BUDGET FOR GSFLOW 
 DATE: 04 28 1991              CUMULATIVE TIME STEP:      28
 MODFLOW STRESS PERIOD      8     CURRENT TIME STEP:     210     ITERATIONS:       6

 -----------------------------------------------------------------------------------

   CUMULATIVE VOLUMES               L**3   RATES FOR THIS TIME STEP           L**3/T
   ------------------                      ------------------------

                                     IN                                         IN
                                     --                                         --
        PRECIPITATION =        1.3303D+07          PRECIPITATION =                  
           STREAMFLOW =                               STREAMFLOW =                  
     GW BOUNDARY FLOW =             91.75       GW BOUNDARY FLOW =              1.23


                                    OUT                                        OUT
                                    ---                                        ---
   EVAPOTRANSPIRATION =        3684934.87     EVAPOTRANSPIRATION =          58231.63
           STREAMFLOW =        4235290.30             STREAMFLOW =          91236.38
     GW BOUNDARY FLOW =           7499.40       GW BOUNDARY FLOW =             35.64

   INFLOWS - OUTFLOWS =        5375797.68     INFLOWS - OUTFLOWS =        -149502.41
             --------                                   --------

 TOTAL STORAGE CHANGE =        5173869.38         STORAGE CHANGE =        -153510.62
       --------------                             --------------
         LAND SURFACE =        1748447.64           LAND SURFACE =        -137153.52
            SOIL ZONE =        5912461.06              SOIL ZONE =         -25144.57
     UNSATURATED ZONE =       -3042450.95       UNSATURATED ZONE =           9915.12
       SATURATED ZONE =         555408.60         SATURATED ZONE =          -1127.71

 OVERALL BUDGET ERROR =         201928.30           BUDGET ERROR =           4008.21


  PERCENT DISCREPANCY =              1.53    PERCENT DISCREPANCY =              2.65



1
 SUMMARY VOLUMETRIC BUDGET FOR GSFLOW 
 DATE: 05 05 1991              CUMULATIVE TIME STEP:       5
 MODFLOW STRESS PERIOD      9     CURRENT TIME STEP:     217     ITERATIONS:     185

 -----------------------------------------------------------------------------------

   CUMULATIVE VOLUMES               L**3   RATES FOR THIS TIME STEP           L**3/T
   ------------------                      ------------------------

                                     IN                                         IN
                                     --                                         --
        PRECIPITATION =        1.3510D+07          PRECIPITATION =                  
           STREAMFLOW =                               STREAMFLOW =                  
     GW BOUNDARY FLOW =            100.51       GW BOUNDARY FLOW =              1.27


                                    OUT                                        OUT
                                    ---                                        ---
   EVAPOTRANSPIRATION =        4062460.30     EVAPOTRANSPIRATION =          90410.24
           STREAMFLOW =        4818456.25             STREAMFLOW =          83176.97
     GW BOUNDARY FLOW =           7747.76       GW BOUNDARY FLOW =             35.41

   INFLOWS - OUTFLOWS =        4621144.33     INFLOWS - OUTFLOWS =        -173621.35
             --------                                   --------

 TOTAL STORAGE CHANGE =        4394794.35         STORAGE CHANGE =        -176945.96
       --------------                             --------------
         LAND SURFACE =        1036420.07           LAND SURFACE =        -150153.36
            SOIL ZONE =        5789248.12              SOIL ZONE =         -35398.83
     UNSATURATED ZONE =       -2979058.95       UNSATURATED ZONE =           7822.56
       SATURATED ZONE =         548181.66         SATURATED ZONE =            783.61

 OVERALL BUDGET ERROR =         226349.98           BUDGET ERROR =           3324.61


  PERCENT DISCREPANCY =              1.69    PERCENT DISCREPANCY =              1.90



1
 SUMMARY VOLUMETRIC BUDGET FOR GSFLOW 
 DATE: 05 12 1991              CUMULATIVE TIME STEP:      12
 MODFLOW STRESS PERIOD      9     CURRENT TIME STEP:     224     ITERATIONS:       7

 -----------------------------------------------------------------------------------

   CUMULATIVE VOLUMES               L**3   RATES FOR THIS TIME STEP           L**3/T
   ------------------                      ------------------------

                                     IN                                         IN
                                     --                                         --
        PRECIPITATION =        1.4029D+07          PRECIPITATION =                  
           STREAMFLOW =                               STREAMFLOW =                  
     GW BOUNDARY FLOW =            109.55       GW BOUNDARY FLOW =              1.31


                                    OUT                                        OUT
                                    ---                                        ---
   EVAPOTRANSPIRATION =        4458070.06     EVAPOTRANSPIRATION =          68952.27
           STREAMFLOW =        5363283.21             STREAMFLOW =          81067.69
     GW BOUNDARY FLOW =           7994.42       GW BOUNDARY FLOW =             35.20

   INFLOWS - OUTFLOWS =        4199984.01     INFLOWS - OUTFLOWS =        -150053.85
             --------                                   --------

 TOTAL STORAGE CHANGE =        3949338.24         STORAGE CHANGE =        -153119.21
       --------------                             --------------
         LAND SURFACE =         579124.41           LAND SURFACE =        -205427.93
            SOIL ZONE =        5751152.45              SOIL ZONE =          45295.89
     UNSATURATED ZONE =       -2919108.70       UNSATURATED ZONE =           8513.29
       SATURATED ZONE =         538166.18         SATURATED ZONE =          -1500.53

 OVERALL BUDGET ERROR =         250645.77           BUDGET ERROR =           3065.36


  PERCENT DISCREPANCY =              1.80    PERCENT DISCREPANCY =              2.02



1
 SUMMARY VOLUMETRIC BUDGET FOR GSFLOW 
 DATE: 05 19 1991              CUMULATIVE TIME STEP:      19
 MODFLOW STRESS PERIOD      9     CURRENT TIME STEP:     231     ITERATIONS:       9

 -----------------------------------------------------------------------------------

   CUMULATIVE VOLUMES               L**3   RATES FOR THIS TIME STEP           L**3/T
   ------------------                      ------------------------

                                     IN                                         IN
                                     --                                         --
        PRECIPITATION =        1.4365D+07          PRECIPITATION =                  
           STREAMFLOW =                               STREAMFLOW =                  
     GW BOUNDARY FLOW =            118.85       GW BOUNDARY FLOW =              1.35


                                    OUT                                        OUT
                                    ---                                        ---
   EVAPOTRANSPIRATION =        4896730.76     EVAPOTRANSPIRATION =          20444.02
           STREAMFLOW =        5837443.84             STREAMFLOW =          59984.46
     GW BOUNDARY FLOW =           8238.92       GW BOUNDARY FLOW =             34.74

   INFLOWS - OUTFLOWS =        3623083.64     INFLOWS - OUTFLOWS =         -80461.87
             --------                                   --------

 TOTAL STORAGE CHANGE =        3354945.31         STORAGE CHANGE =         -82288.01
       --------------                             --------------
         LAND SURFACE =         228252.15           LAND SURFACE =         -22354.64
            SOIL ZONE =        5471803.83              SOIL ZONE =         -63712.10
     UNSATURATED ZONE =       -2872781.74       UNSATURATED ZONE =           5262.50
       SATURATED ZONE =         527666.69         SATURATED ZONE =          -1483.84

 OVERALL BUDGET ERROR =         268138.33           BUDGET ERROR =           1826.14


  PERCENT DISCREPANCY =              1.88    PERCENT DISCREPANCY =              2.24



1
 SUMMARY VOLUMETRIC BUDGET FOR GSFLOW 
 DATE: 05 26 1991              CUMULATIVE TIME STEP:      26
 MODFLOW STRESS PERIOD      9     CURRENT TIME STEP:     238     ITERATIONS:       8

 -----------------------------------------------------------------------------------

   CUMULATIVE VOLUMES               L**3   RATES FOR THIS TIME STEP           L**3/T
   ------------------                      ------------------------

                                     IN                                         IN
                                     --                                         --
        PRECIPITATION =        1.4426D+07          PRECIPITATION =                  
           STREAMFLOW =                               STREAMFLOW =                  
     GW BOUNDARY FLOW =            128.44       GW BOUNDARY FLOW =              1.39


                                    OUT                                        OUT
                                    ---                                        ---
   EVAPOTRANSPIRATION =        5581358.49     EVAPOTRANSPIRATION =          76899.63
           STREAMFLOW =        6178547.28             STREAMFLOW =          36124.69
     GW BOUNDARY FLOW =           8480.26       GW BOUNDARY FLOW =             34.20

   INFLOWS - OUTFLOWS =        2658240.02     INFLOWS - OUTFLOWS =        -113057.13
             --------                                   --------

 TOTAL STORAGE CHANGE =        2381658.45         STORAGE CHANGE =        -113741.64
       --------------                             --------------
         LAND SURFACE =          55233.90           LAND SURFACE =          -8157.37
            SOIL ZONE =        4665626.21              SOIL ZONE =        -103065.32
     UNSATURATED ZONE =       -2854419.45       UNSATURATED ZONE =           -388.33
       SATURATED ZONE =         515212.92         SATURATED ZONE =          -2130.69

 OVERALL BUDGET ERROR =         276581.57           BUDGET ERROR =            684.51


  PERCENT DISCREPANCY =              1.94    PERCENT DISCREPANCY =              0.60



1
 SUMMARY VOLUMETRIC BUDGET FOR GSFLOW 
 DATE: 06 02 1991              CUMULATIVE TIME STEP:       2
 MODFLOW STRESS PERIOD     10     CURRENT TIME STEP:     245     ITERATIONS:       8

 -----------------------------------------------------------------------------------

   CUMULATIVE VOLUMES               L**3   RATES FOR THIS TIME STEP           L**3/T
   ------------------                      ------------------------

                                     IN                                         IN
                                     --                                         --
        PRECIPITATION =        1.4671D+07          PRECIPITATION =                  
           STREAMFLOW =                               STREAMFLOW =                  
     GW BOUNDARY FLOW =            138.32       GW BOUNDARY FLOW =              1.43


                                    OUT                                        OUT
                                    ---                                        ---
   EVAPOTRANSPIRATION =        6170538.26     EVAPOTRANSPIRATION =         127565.49
           STREAMFLOW =        6399125.44             STREAMFLOW =          27715.72
     GW BOUNDARY FLOW =           8718.37       GW BOUNDARY FLOW =             33.88

   INFLOWS - OUTFLOWS =        2092731.05     INFLOWS - OUTFLOWS =        -155313.65
             --------                                   --------

 TOTAL STORAGE CHANGE =        1812525.58         STORAGE CHANGE =        -154632.64
       --------------                             --------------
         LAND SURFACE =          19760.70           LAND SURFACE =          -4094.13
            SOIL ZONE =        4164105.17              SOIL ZONE =        -144645.64
     UNSATURATED ZONE =       -2868756.63       UNSATURATED ZONE =          -3000.61
       SATURATED ZONE =         497410.96         SATURATED ZONE =          -2892.33

 OVERALL BUDGET ERROR =         280205.47           BUDGET ERROR =           -681.01


  PERCENT DISCREPANCY =              1.93    PERCENT DISCREPANCY =             -0.44



1
 SUMMARY VOLUMETRIC BUDGET FOR GSFLOW 
 DATE: 06 09 1991              CUMULATIVE TIME STEP:       9
 MODFLOW STRESS PERIOD     10     CURRENT TIME STEP:     252     ITERATIONS:       7

 -----------------------------------------------------------------------------------

   CUMULATIVE VOLUMES               L**3   RATES FOR THIS TIME STEP           L**3/T
   ------------------                      ------------------------

                                     IN                                         IN
                                     --                                         --
        PRECIPITATION =        1.4671D+07          PRECIPITATION =                  
           STREAMFLOW =                               STREAMFLOW =                  
     GW BOUNDARY FLOW =            148.50       GW BOUNDARY FLOW =              1.47


                                    OUT                                        OUT
                                    ---                                        ---
   EVAPOTRANSPIRATION =        6959017.66     EVAPOTRANSPIRATION =         172470.54
           STREAMFLOW =        6555381.40             STREAMFLOW =          18969.38
     GW BOUNDARY FLOW =           8954.06       GW BOUNDARY FLOW =             33.53

   INFLOWS - OUTFLOWS =        1147770.18     INFLOWS - OUTFLOWS =        -191471.97
             --------                                   --------

 TOTAL STORAGE CHANGE =         873052.38         STORAGE CHANGE =        -190016.30
       --------------                             --------------
         LAND SURFACE =           3957.39           LAND SURFACE =          -2186.13
            SOIL ZONE =        3298593.47              SOIL ZONE =        -177998.65
     UNSATURATED ZONE =       -2902922.79       UNSATURATED ZONE =          -5940.07
       SATURATED ZONE =         473418.40         SATURATED ZONE =          -3891.53

 OVERALL BUDGET ERROR =         274717.80           BUDGET ERROR =          -1455.68


  PERCENT DISCREPANCY =              1.89    PERCENT DISCREPANCY =             -0.76



1
 SUMMARY VOLUMETRIC BUDGET FOR GSFLOW 
 DATE: 06 16 1991              CUMULATIVE TIME STEP:      16
 MODFLOW STRESS PERIOD     10     CURRENT TIME STEP:     259     ITERATIONS:       6

 -----------------------------------------------------------------------------------

   CUMULATIVE VOLUMES               L**3   RATES FOR THIS TIME STEP           L**3/T
   ------------------                      ------------------------

                                     IN                                         IN
                                     --                                         --
        PRECIPITATION =        1.4671D+07          PRECIPITATION =                  
           STREAMFLOW =                               STREAMFLOW =                  
     GW BOUNDARY FLOW =            158.99       GW BOUNDARY FLOW =              1.52


                                    OUT                                        OUT
                                    ---                                        ---
   EVAPOTRANSPIRATION =        7975080.43     EVAPOTRANSPIRATION =         116810.30
           STREAMFLOW =        6658312.70             STREAMFLOW =          12773.90
     GW BOUNDARY FLOW =           9186.24       GW BOUNDARY FLOW =             33.05

   INFLOWS - OUTFLOWS =          28554.43     INFLOWS - OUTFLOWS =        -129615.73
             --------                                   --------

 TOTAL STORAGE CHANGE =        -238183.06         STORAGE CHANGE =        -128944.37
       --------------                             --------------
         LAND SURFACE =            106.65           LAND SURFACE =            -66.98
            SOIL ZONE =        2306060.45              SOIL ZONE =        -107543.01
     UNSATURATED ZONE =       -2984833.02       UNSATURATED ZONE =         -15710.20
       SATURATED ZONE =         440476.41         SATURATED ZONE =          -5624.25

 OVERALL BUDGET ERROR =         266737.49           BUDGET ERROR =           -671.36


  PERCENT DISCREPANCY =              1.81    PERCENT DISCREPANCY =             -0.52



1
 SUMMARY VOLUMETRIC BUDGET FOR GSFLOW 
 DATE: 06 23 1991              CUMULATIVE TIME STEP:      23
 MODFLOW STRESS PERIOD     10     CURRENT TIME STEP:     266     ITERATIONS:       7

 -----------------------------------------------------------------------------------

   CUMULATIVE VOLUMES               L**3   RATES FOR THIS TIME STEP           L**3/T
   ------------------                      ------------------------

                                     IN                                         IN
                                     --                                         --
        PRECIPITATION =        1.4671D+07          PRECIPITATION =                  
           STREAMFLOW =                               STREAMFLOW =                  
     GW BOUNDARY FLOW =            169.79       GW BOUNDARY FLOW =              1.56


                                    OUT                                        OUT
                                    ---                                        ---
   EVAPOTRANSPIRATION =        8516159.67     EVAPOTRANSPIRATION =          38629.31
           STREAMFLOW =        6740775.07             STREAMFLOW =          12012.64
     GW BOUNDARY FLOW =           9416.92       GW BOUNDARY FLOW =             32.93

   INFLOWS - OUTFLOWS =        -595207.07     INFLOWS - OUTFLOWS =         -50673.32
             --------                                   --------

 TOTAL STORAGE CHANGE =        -858791.02         STORAGE CHANGE =         -50439.76
       --------------                             --------------
         LAND SURFACE =             16.57           LAND SURFACE =             -3.65
            SOIL ZONE =        1839812.60              SOIL ZONE =         -31424.24
     UNSATURATED ZONE =       -3094030.29       UNSATURATED ZONE =         -12539.72
       SATURATED ZONE =         395403.16         SATURATED ZONE =          -6472.22

 OVERALL BUDGET ERROR =         263583.94           BUDGET ERROR =           -233.56


  PERCENT DISCREPANCY =              1.71    PERCENT DISCREPANCY =             -0.46



1
 SUMMARY VOLUMETRIC BUDGET FOR GSFLOW 
 DATE: 06 30 1991              CUMULATIVE TIME STEP:      30
 MODFLOW STRESS PERIOD     10     CURRENT TIME STEP:     273     ITERATIONS:       8

 -----------------------------------------------------------------------------------

[...]
                                    ---                                        ---
   EVAPOTRANSPIRATION =        7.2878D+07     EVAPOTRANSPIRATION =          72682.30
           STREAMFLOW =        6.9701D+07             STREAMFLOW =           7651.08
     GW BOUNDARY FLOW =          50924.28       GW BOUNDARY FLOW =             24.07

   INFLOWS - OUTFLOWS =       -9115959.79     INFLOWS - OUTFLOWS =         -80353.98
             --------                                   --------

 TOTAL STORAGE CHANGE =       -1.1987D+07         STORAGE CHANGE =         -80276.81
       --------------                             --------------
         LAND SURFACE =         179293.22           LAND SURFACE =         -11102.33
            SOIL ZONE =        1393173.56              SOIL ZONE =         -50507.30
     UNSATURATED ZONE =         -38399.14       UNSATURATED ZONE =         -11612.41
       SATURATED ZONE =       -1.3521D+07         SATURATED ZONE =          -7054.81

 OVERALL BUDGET ERROR =        2870664.11           BUDGET ERROR =            -77.17


  PERCENT DISCREPANCY =              1.99    PERCENT DISCREPANCY =             -0.10



1
 SUMMARY VOLUMETRIC BUDGET FOR GSFLOW 
 DATE: 09 03 1995              CUMULATIVE TIME STEP:       3
 MODFLOW STRESS PERIOD     61     CURRENT TIME STEP:    1799     ITERATIONS:       7

 -----------------------------------------------------------------------------------

   CUMULATIVE VOLUMES               L**3   RATES FOR THIS TIME STEP           L**3/T
   ------------------                      ------------------------

                                     IN                                         IN
                                     --                                         --
        PRECIPITATION =        1.3351D+08          PRECIPITATION =                  
           STREAMFLOW =                               STREAMFLOW =                  
     GW BOUNDARY FLOW =           5645.25       GW BOUNDARY FLOW =              3.56


                                    OUT                                        OUT
                                    ---                                        ---
   EVAPOTRANSPIRATION =        7.3357D+07     EVAPOTRANSPIRATION =          63174.80
           STREAMFLOW =        6.9750D+07             STREAMFLOW =           6586.81
     GW BOUNDARY FLOW =          51092.39       GW BOUNDARY FLOW =             23.98

   INFLOWS - OUTFLOWS =       -9643832.98     INFLOWS - OUTFLOWS =         -69782.03
             --------                                   --------

 TOTAL STORAGE CHANGE =       -1.2514D+07         STORAGE CHANGE =         -69769.74
       --------------                             --------------
         LAND SURFACE =         114525.52           LAND SURFACE =          -7766.54
            SOIL ZONE =        1060343.09              SOIL ZONE =         -43690.33
     UNSATURATED ZONE =        -114115.43       UNSATURATED ZONE =         -10477.60
       SATURATED ZONE =       -1.3575D+07         SATURATED ZONE =          -7835.30

 OVERALL BUDGET ERROR =        2870346.40           BUDGET ERROR =            -12.28


  PERCENT DISCREPANCY =              1.99    PERCENT DISCREPANCY =             -0.02



1
 SUMMARY VOLUMETRIC BUDGET FOR GSFLOW 
 DATE: 09 10 1995              CUMULATIVE TIME STEP:      10
 MODFLOW STRESS PERIOD     61     CURRENT TIME STEP:    1806     ITERATIONS:       7

 -----------------------------------------------------------------------------------

   CUMULATIVE VOLUMES               L**3   RATES FOR THIS TIME STEP           L**3/T
   ------------------                      ------------------------

                                     IN                                         IN
                                     --                                         --
        PRECIPITATION =        1.3351D+08          PRECIPITATION =                  
           STREAMFLOW =                               STREAMFLOW =                  
     GW BOUNDARY FLOW =           5670.54       GW BOUNDARY FLOW =              3.65


                                    OUT                                        OUT
                                    ---                                        ---
   EVAPOTRANSPIRATION =        7.3711D+07     EVAPOTRANSPIRATION =          47301.91
           STREAMFLOW =        6.9797D+07             STREAMFLOW =           6625.61
     GW BOUNDARY FLOW =          51260.37       GW BOUNDARY FLOW =             23.98

   INFLOWS - OUTFLOWS =       -1.0045D+07     INFLOWS - OUTFLOWS =         -53947.85
             --------                                   --------

 TOTAL STORAGE CHANGE =       -1.2915D+07         STORAGE CHANGE =         -53938.99
       --------------                             --------------
         LAND SURFACE =          75925.35           LAND SURFACE =          -4673.87
            SOIL ZONE =         819081.63              SOIL ZONE =         -31589.13
     UNSATURATED ZONE =        -184334.45       UNSATURATED ZONE =         -10183.34
       SATURATED ZONE =       -1.3626D+07         SATURATED ZONE =          -7492.67

 OVERALL BUDGET ERROR =        2870287.74           BUDGET ERROR =             -8.87


  PERCENT DISCREPANCY =              1.98    PERCENT DISCREPANCY =             -0.02



1
 SUMMARY VOLUMETRIC BUDGET FOR GSFLOW 
 DATE: 09 17 1995              CUMULATIVE TIME STEP:      17
 MODFLOW STRESS PERIOD     61     CURRENT TIME STEP:    1813     ITERATIONS:       7

 -----------------------------------------------------------------------------------

   CUMULATIVE VOLUMES               L**3   RATES FOR THIS TIME STEP           L**3/T
   ------------------                      ------------------------

                                     IN                                         IN
                                     --                                         --
        PRECIPITATION =        1.3351D+08          PRECIPITATION =                  
           STREAMFLOW =                               STREAMFLOW =                  
     GW BOUNDARY FLOW =           5696.46       GW BOUNDARY FLOW =              3.74


                                    OUT                                        OUT
                                    ---                                        ---
   EVAPOTRANSPIRATION =        7.4092D+07     EVAPOTRANSPIRATION =          43182.29
           STREAMFLOW =        6.9836D+07             STREAMFLOW =           5791.20
     GW BOUNDARY FLOW =          51427.53       GW BOUNDARY FLOW =             23.90

   INFLOWS - OUTFLOWS =       -1.0466D+07     INFLOWS - OUTFLOWS =         -48993.65
             --------                                   --------

 TOTAL STORAGE CHANGE =       -1.3336D+07         STORAGE CHANGE =         -48984.56
       --------------                             --------------
         LAND SURFACE =          44186.54           LAND SURFACE =          -3043.17
            SOIL ZONE =         573248.96              SOIL ZONE =         -26762.64
     UNSATURATED ZONE =        -259595.00       UNSATURATED ZONE =         -10426.03
       SATURATED ZONE =       -1.3694D+07         SATURATED ZONE =          -8752.74

 OVERALL BUDGET ERROR =        2870198.33           BUDGET ERROR =             -9.09


  PERCENT DISCREPANCY =              1.97    PERCENT DISCREPANCY =             -0.02



1
 SUMMARY VOLUMETRIC BUDGET FOR GSFLOW 
 DATE: 09 24 1995              CUMULATIVE TIME STEP:      24
 MODFLOW STRESS PERIOD     61     CURRENT TIME STEP:    1820     ITERATIONS:       7

 -----------------------------------------------------------------------------------

   CUMULATIVE VOLUMES               L**3   RATES FOR THIS TIME STEP           L**3/T
   ------------------                      ------------------------

                                     IN                                         IN
                                     --                                         --
        PRECIPITATION =        1.3351D+08          PRECIPITATION =                  
           STREAMFLOW =                               STREAMFLOW =                  
     GW BOUNDARY FLOW =           5722.96       GW BOUNDARY FLOW =              3.82


                                    OUT                                        OUT
                                    ---                                        ---
   EVAPOTRANSPIRATION =        7.4358D+07     EVAPOTRANSPIRATION =          27513.55
           STREAMFLOW =        6.9877D+07             STREAMFLOW =           6426.23
     GW BOUNDARY FLOW =          51594.83       GW BOUNDARY FLOW =             23.95

   INFLOWS - OUTFLOWS =       -1.0773D+07     INFLOWS - OUTFLOWS =         -33959.90
             --------                                   --------

 TOTAL STORAGE CHANGE =       -1.3643D+07         STORAGE CHANGE =         -33954.88
       --------------                             --------------
         LAND SURFACE =          28055.76           LAND SURFACE =          -1559.79
            SOIL ZONE =         416001.35              SOIL ZONE =         -15677.41
     UNSATURATED ZONE =        -330246.00       UNSATURATED ZONE =          -8996.45
       SATURATED ZONE =       -1.3757D+07         SATURATED ZONE =          -7721.25

 OVERALL BUDGET ERROR =        2870141.09           BUDGET ERROR =             -5.03


  PERCENT DISCREPANCY =              1.97    PERCENT DISCREPANCY =             -0.01



1
 SUMMARY VOLUMETRIC BUDGET FOR GSFLOW 
 DATE: 10 01 1995              CUMULATIVE TIME STEP:       1
 MODFLOW STRESS PERIOD     62     CURRENT TIME STEP:    1827     ITERATIONS:       6

 -----------------------------------------------------------------------------------

   CUMULATIVE VOLUMES               L**3   RATES FOR THIS TIME STEP           L**3/T
   ------------------                      ------------------------

                                     IN                                         IN
                                     --                                         --
        PRECIPITATION =        1.3351D+08          PRECIPITATION =                  
           STREAMFLOW =                               STREAMFLOW =                  
     GW BOUNDARY FLOW =           5750.04       GW BOUNDARY FLOW =              3.90


                                    OUT                                        OUT
                                    ---                                        ---
   EVAPOTRANSPIRATION =        7.4474D+07     EVAPOTRANSPIRATION =          16821.43
           STREAMFLOW =        6.9929D+07             STREAMFLOW =           7415.30
     GW BOUNDARY FLOW =          51763.02       GW BOUNDARY FLOW =             24.03

   INFLOWS - OUTFLOWS =       -1.0941D+07     INFLOWS - OUTFLOWS =         -24256.86
             --------                                   --------

 TOTAL STORAGE CHANGE =       -1.3811D+07         STORAGE CHANGE =         -24257.81
       --------------                             --------------
         LAND SURFACE =          22241.70           LAND SURFACE =           -699.89
            SOIL ZONE =         352605.93              SOIL ZONE =          -9279.43
     UNSATURATED ZONE =        -386770.12       UNSATURATED ZONE =          -7928.41
       SATURATED ZONE =       -1.3799D+07         SATURATED ZONE =          -6350.11

 OVERALL BUDGET ERROR =        2870138.83           BUDGET ERROR =              0.95


  PERCENT DISCREPANCY =              1.97    PERCENT DISCREPANCY =              0.00



1
 SUMMARY VOLUMETRIC BUDGET FOR GSFLOW 
 DATE: 10 08 1995              CUMULATIVE TIME STEP:       8
 MODFLOW STRESS PERIOD     62     CURRENT TIME STEP:    1834     ITERATIONS:       6

 -----------------------------------------------------------------------------------

   CUMULATIVE VOLUMES               L**3   RATES FOR THIS TIME STEP           L**3/T
   ------------------                      ------------------------

                                     IN                                         IN
                                     --                                         --
        PRECIPITATION =        1.3351D+08          PRECIPITATION =                  
           STREAMFLOW =                               STREAMFLOW =                  
     GW BOUNDARY FLOW =           5777.65       GW BOUNDARY FLOW =              3.98


                                    OUT                                        OUT
                                    ---                                        ---
   EVAPOTRANSPIRATION =        7.4597D+07     EVAPOTRANSPIRATION =          15520.22
           STREAMFLOW =        6.9980D+07             STREAMFLOW =           7323.35
     GW BOUNDARY FLOW =          51931.16       GW BOUNDARY FLOW =             24.03

   INFLOWS - OUTFLOWS =       -1.1115D+07     INFLOWS - OUTFLOWS =         -22863.63
             --------                                   --------

 TOTAL STORAGE CHANGE =       -1.3985D+07         STORAGE CHANGE =         -22863.72
       --------------                             --------------
         LAND SURFACE =          18179.46           LAND SURFACE =           -628.45
            SOIL ZONE =         284750.94              SOIL ZONE =          -8224.75
     UNSATURATED ZONE =        -440765.95       UNSATURATED ZONE =          -7327.20
       SATURATED ZONE =       -1.3847D+07         SATURATED ZONE =          -6683.34

 OVERALL BUDGET ERROR =        2870129.77           BUDGET ERROR =              0.09


  PERCENT DISCREPANCY =              1.96    PERCENT DISCREPANCY =              0.00



1
 SUMMARY VOLUMETRIC BUDGET FOR GSFLOW 
 DATE: 10 15 1995              CUMULATIVE TIME STEP:      15
 MODFLOW STRESS PERIOD     62     CURRENT TIME STEP:    1841     ITERATIONS:       5

 -----------------------------------------------------------------------------------

   CUMULATIVE VOLUMES               L**3   RATES FOR THIS TIME STEP           L**3/T
   ------------------                      ------------------------

                                     IN                                         IN
                                     --                                         --
        PRECIPITATION =        1.3351D+08          PRECIPITATION =                  
           STREAMFLOW =                               STREAMFLOW =                  
     GW BOUNDARY FLOW =           5805.75       GW BOUNDARY FLOW =              4.04


                                    OUT                                        OUT
                                    ---                                        ---
   EVAPOTRANSPIRATION =        7.4714D+07     EVAPOTRANSPIRATION =          18119.68
           STREAMFLOW =        7.0029D+07             STREAMFLOW =           6916.61
     GW BOUNDARY FLOW =          52099.27       GW BOUNDARY FLOW =             24.00

   INFLOWS - OUTFLOWS =       -1.1281D+07     INFLOWS - OUTFLOWS =         -25056.25
             --------                                   --------

 TOTAL STORAGE CHANGE =       -1.4151D+07         STORAGE CHANGE =         -25055.86
       --------------                             --------------
         LAND SURFACE =          14037.99           LAND SURFACE =           -696.58
            SOIL ZONE =         223618.87              SOIL ZONE =          -9343.36
     UNSATURATED ZONE =        -489861.06       UNSATURATED ZONE =          -6926.76
       SATURATED ZONE =       -1.3899D+07         SATURATED ZONE =          -8089.18

 OVERALL BUDGET ERROR =        2870114.60           BUDGET ERROR =             -0.39


  PERCENT DISCREPANCY =              1.96    PERCENT DISCREPANCY =             -0.00



1
 SUMMARY VOLUMETRIC BUDGET FOR GSFLOW 
 DATE: 10 22 1995              CUMULATIVE TIME STEP:      22
 MODFLOW STRESS PERIOD     62     CURRENT TIME STEP:    1848     ITERATIONS:      13

 -----------------------------------------------------------------------------------

   CUMULATIVE VOLUMES               L**3   RATES FOR THIS TIME STEP           L**3/T
   ------------------                      ------------------------

                                     IN                                         IN
                                     --                                         --
        PRECIPITATION =        1.3351D+08          PRECIPITATION =                  
           STREAMFLOW =                               STREAMFLOW =                  
     GW BOUNDARY FLOW =           5834.30       GW BOUNDARY FLOW =              4.11


                                    OUT                                        OUT
                                    ---                                        ---
   EVAPOTRANSPIRATION =        7.4817D+07     EVAPOTRANSPIRATION =           4713.70
           STREAMFLOW =        7.0079D+07             STREAMFLOW =           8079.75
     GW BOUNDARY FLOW =          52267.40       GW BOUNDARY FLOW =             24.11

   INFLOWS - OUTFLOWS =       -1.1435D+07     INFLOWS - OUTFLOWS =         -12813.45
             --------                                   --------

 TOTAL STORAGE CHANGE =       -1.4305D+07         STORAGE CHANGE =         -12815.38
       --------------                             --------------
         LAND SURFACE =          10452.80           LAND SURFACE =             -6.45
            SOIL ZONE =         172140.51              SOIL ZONE =          -2082.65
     UNSATURATED ZONE =        -535403.93       UNSATURATED ZONE =          -6042.73
       SATURATED ZONE =       -1.3952D+07         SATURATED ZONE =          -4683.58

 OVERALL BUDGET ERROR =        2870101.42           BUDGET ERROR =              1.92


  PERCENT DISCREPANCY =              1.96    PERCENT DISCREPANCY =              0.01



1
 SUMMARY VOLUMETRIC BUDGET FOR GSFLOW 
 DATE: 10 29 1995              CUMULATIVE TIME STEP:      29
 MODFLOW STRESS PERIOD     62     CURRENT TIME STEP:    1855     ITERATIONS:       6

 -----------------------------------------------------------------------------------

   CUMULATIVE VOLUMES               L**3   RATES FOR THIS TIME STEP           L**3/T
   ------------------                      ------------------------

                                     IN                                         IN
                                     --                                         --
        PRECIPITATION =        1.3351D+08          PRECIPITATION =                  
           STREAMFLOW =                               STREAMFLOW =                  
     GW BOUNDARY FLOW =           5863.27       GW BOUNDARY FLOW =              4.17


                                    OUT                                        OUT
                                    ---                                        ---
   EVAPOTRANSPIRATION =        7.4883D+07     EVAPOTRANSPIRATION =          11351.31
           STREAMFLOW =        7.0133D+07             STREAMFLOW =           7425.77
     GW BOUNDARY FLOW =          52435.95       GW BOUNDARY FLOW =             24.06

   INFLOWS - OUTFLOWS =       -1.1554D+07     INFLOWS - OUTFLOWS =         -18796.97
             --------                                   --------

 TOTAL STORAGE CHANGE =       -1.4425D+07         STORAGE CHANGE =         -18796.91
       --------------                             --------------
         LAND SURFACE =           9254.99           LAND SURFACE =           -359.13
            SOIL ZONE =         141824.25              SOIL ZONE =          -5080.85
     UNSATURATED ZONE =        -578541.95       UNSATURATED ZONE =          -6161.57
       SATURATED ZONE =       -1.3997D+07         SATURATED ZONE =          -7195.38

 OVERALL BUDGET ERROR =        2870103.52           BUDGET ERROR =             -0.06


  PERCENT DISCREPANCY =              1.96    PERCENT DISCREPANCY =             -0.00



