1
 SUMMARY VOLUMETRIC BUDGET FOR GSFLOW 
 DATE: 10 07 1990              CUMULATIVE TIME STEP:       7
 MODFLOW STRESS PERIOD      2     CURRENT TIME STEP:       7     ITERATIONS:       7

 -----------------------------------------------------------------------------------

   CUMULATIVE VOLUMES               L**3   RATES FOR THIS TIME STEP           L**3/T
   ------------------                      ------------------------

                                     IN                                         IN
                                     --                                         --
        PRECIPITATION =                            PRECIPITATION =                  
           STREAMFLOW =                               STREAMFLOW =                  
     GW BOUNDARY FLOW =                         GW BOUNDARY FLOW =                  


                                    OUT                                        OUT
                                    ---                                        ---
   EVAPOTRANSPIRATION =         385031.63     EVAPOTRANSPIRATION =          11801.34
           STREAMFLOW =          45661.61             STREAMFLOW =           8128.74
     GW BOUNDARY FLOW =            252.78       GW BOUNDARY FLOW =             36.30

   INFLOWS - OUTFLOWS =        -430946.01     INFLOWS - OUTFLOWS =         -19966.38
             --------                                   --------

 TOTAL STORAGE CHANGE =        -429355.10         STORAGE CHANGE =         -19938.35
       --------------                             --------------
         LAND SURFACE =                             LAND SURFACE =                  
            SOIL ZONE =         -33384.03              SOIL ZONE =           -943.80
     UNSATURATED ZONE =        -502794.45       UNSATURATED ZONE =         -33592.86
       SATURATED ZONE =         106823.38         SATURATED ZONE =          14598.31

 OVERALL BUDGET ERROR =          -1590.91           BUDGET ERROR =            -28.04


  PERCENT DISCREPANCY =             -0.37    PERCENT DISCREPANCY =             -0.14



1
 SUMMARY VOLUMETRIC BUDGET FOR GSFLOW 
 DATE: 10 14 1990              CUMULATIVE TIME STEP:      14
 MODFLOW STRESS PERIOD      2     CURRENT TIME STEP:      14     ITERATIONS:       6

 -----------------------------------------------------------------------------------

   CUMULATIVE VOLUMES               L**3   RATES FOR THIS TIME STEP           L**3/T
   ------------------                      ------------------------

                                     IN                                         IN
                                     --                                         --
        PRECIPITATION =                            PRECIPITATION =                  
           STREAMFLOW =                               STREAMFLOW =                  
     GW BOUNDARY FLOW =                         GW BOUNDARY FLOW =                  


                                    OUT                                        OUT
                                    ---                                        ---
   EVAPOTRANSPIRATION =         665235.67     EVAPOTRANSPIRATION =          42298.13
           STREAMFLOW =         100376.39             STREAMFLOW =           7413.80
     GW BOUNDARY FLOW =            506.61       GW BOUNDARY FLOW =             36.24

   INFLOWS - OUTFLOWS =        -766118.67     INFLOWS - OUTFLOWS =         -49748.17
             --------                                   --------

 TOTAL STORAGE CHANGE =        -764154.83         STORAGE CHANGE =         -49710.99
       --------------                             --------------
         LAND SURFACE =                             LAND SURFACE =                  
            SOIL ZONE =         -58194.84              SOIL ZONE =          -4382.18
     UNSATURATED ZONE =        -877795.92       UNSATURATED ZONE =         -52080.87
       SATURATED ZONE =         171835.92         SATURATED ZONE =           6752.05

 OVERALL BUDGET ERROR =          -1963.85           BUDGET ERROR =            -37.18


  PERCENT DISCREPANCY =             -0.26    PERCENT DISCREPANCY =             -0.07



1
 SUMMARY VOLUMETRIC BUDGET FOR GSFLOW 
 DATE: 10 21 1990              CUMULATIVE TIME STEP:      21
 MODFLOW STRESS PERIOD      2     CURRENT TIME STEP:      21     ITERATIONS:       6

 -----------------------------------------------------------------------------------

   CUMULATIVE VOLUMES               L**3   RATES FOR THIS TIME STEP           L**3/T
   ------------------                      ------------------------

                                     IN                                         IN
                                     --                                         --
        PRECIPITATION =         188432.87          PRECIPITATION =                  
           STREAMFLOW =                               STREAMFLOW =                  
     GW BOUNDARY FLOW =                         GW BOUNDARY FLOW =                  


                                    OUT                                        OUT
                                    ---                                        ---
   EVAPOTRANSPIRATION =         815642.02     EVAPOTRANSPIRATION =          41836.90
           STREAMFLOW =         163145.00             STREAMFLOW =          10143.79
     GW BOUNDARY FLOW =            760.80       GW BOUNDARY FLOW =             36.37

   INFLOWS - OUTFLOWS =        -791114.95     INFLOWS - OUTFLOWS =         -52017.06
             --------                                   --------

 TOTAL STORAGE CHANGE =        -790291.80         STORAGE CHANGE =         -52008.94
       --------------                             --------------
         LAND SURFACE =          18885.57           LAND SURFACE =         -43558.49
            SOIL ZONE =          47345.90              SOIL ZONE =           2011.75
     UNSATURATED ZONE =       -1091620.77       UNSATURATED ZONE =         -21389.22
       SATURATED ZONE =         235097.51         SATURATED ZONE =          10927.01

 OVERALL BUDGET ERROR =           -823.15           BUDGET ERROR =             -8.12


  PERCENT DISCREPANCY =             -0.08    PERCENT DISCREPANCY =             -0.02



1
 SUMMARY VOLUMETRIC BUDGET FOR GSFLOW 
 DATE: 10 28 1990              CUMULATIVE TIME STEP:      28
 MODFLOW STRESS PERIOD      2     CURRENT TIME STEP:      28     ITERATIONS:       6

 -----------------------------------------------------------------------------------

   CUMULATIVE VOLUMES               L**3   RATES FOR THIS TIME STEP           L**3/T
   ------------------                      ------------------------

                                     IN                                         IN
                                     --                                         --
        PRECIPITATION =         188432.87          PRECIPITATION =                  
           STREAMFLOW =                               STREAMFLOW =                  
     GW BOUNDARY FLOW =                         GW BOUNDARY FLOW =                  


                                    OUT                                        OUT
                                    ---                                        ---
   EVAPOTRANSPIRATION =         944466.75     EVAPOTRANSPIRATION =          11826.37
           STREAMFLOW =         224532.89             STREAMFLOW =           8915.53
     GW BOUNDARY FLOW =           1013.98       GW BOUNDARY FLOW =             36.12

   INFLOWS - OUTFLOWS =        -981580.75     INFLOWS - OUTFLOWS =         -20778.03
             --------                                   --------

 TOTAL STORAGE CHANGE =        -980647.39         STORAGE CHANGE =         -20768.67
       --------------                             --------------
         LAND SURFACE =                             LAND SURFACE =                  
            SOIL ZONE =          18293.41              SOIL ZONE =          -3431.20
     UNSATURATED ZONE =       -1275154.60       UNSATURATED ZONE =         -23226.63
       SATURATED ZONE =         276213.79         SATURATED ZONE =           5889.17

 OVERALL BUDGET ERROR =           -933.36           BUDGET ERROR =             -9.36


  PERCENT DISCREPANCY =             -0.08    PERCENT DISCREPANCY =             -0.05



1
 SUMMARY VOLUMETRIC BUDGET FOR GSFLOW 
 DATE: 11 04 1990              CUMULATIVE TIME STEP:       4
 MODFLOW STRESS PERIOD      3     CURRENT TIME STEP:      35     ITERATIONS:       6

 -----------------------------------------------------------------------------------

   CUMULATIVE VOLUMES               L**3   RATES FOR THIS TIME STEP           L**3/T
   ------------------                      ------------------------

                                     IN                                         IN
                                     --                                         --
        PRECIPITATION =         703113.06          PRECIPITATION =                  
           STREAMFLOW =                               STREAMFLOW =                  
     GW BOUNDARY FLOW =                         GW BOUNDARY FLOW =                  


                                    OUT                                        OUT
                                    ---                                        ---
   EVAPOTRANSPIRATION =        1005164.48     EVAPOTRANSPIRATION =          26361.48
           STREAMFLOW =         295101.60             STREAMFLOW =          10641.74
     GW BOUNDARY FLOW =           1267.03       GW BOUNDARY FLOW =             36.14

   INFLOWS - OUTFLOWS =        -598420.04     INFLOWS - OUTFLOWS =         -37039.36
             --------                                   --------

 TOTAL STORAGE CHANGE =        -602478.07         STORAGE CHANGE =         -38273.46
       --------------                             --------------
         LAND SURFACE =         132159.65           LAND SURFACE =        -160480.33
            SOIL ZONE =         350085.11              SOIL ZONE =         132915.19
     UNSATURATED ZONE =       -1420666.73       UNSATURATED ZONE =         -20067.38
       SATURATED ZONE =         335943.89         SATURATED ZONE =           9359.06

 OVERALL BUDGET ERROR =           4058.03           BUDGET ERROR =           1234.10

  ***WARNING, FLUX RATES OFF > 3%

  PERCENT DISCREPANCY =              0.31    PERCENT DISCREPANCY =              3.28



1
 SUMMARY VOLUMETRIC BUDGET FOR GSFLOW 
 DATE: 11 11 1990              CUMULATIVE TIME STEP:      11
 MODFLOW STRESS PERIOD      3     CURRENT TIME STEP:      42     ITERATIONS:       6

 -----------------------------------------------------------------------------------

   CUMULATIVE VOLUMES               L**3   RATES FOR THIS TIME STEP           L**3/T
   ------------------                      ------------------------

                                     IN                                         IN
                                     --                                         --
        PRECIPITATION =         703113.06          PRECIPITATION =                  
           STREAMFLOW =                               STREAMFLOW =                  
     GW BOUNDARY FLOW =                         GW BOUNDARY FLOW =                  


                                    OUT                                        OUT
                                    ---                                        ---
   EVAPOTRANSPIRATION =        1082565.65     EVAPOTRANSPIRATION =          12155.74
           STREAMFLOW =         366184.38             STREAMFLOW =           9645.54
     GW BOUNDARY FLOW =           1519.13       GW BOUNDARY FLOW =             35.93

   INFLOWS - OUTFLOWS =        -747156.11     INFLOWS - OUTFLOWS =         -21837.21
             --------                                   --------

 TOTAL STORAGE CHANGE =        -751335.80         STORAGE CHANGE =         -21828.58
       --------------                             --------------
         LAND SURFACE =            595.09           LAND SURFACE =          -1416.54
            SOIL ZONE =         422187.24              SOIL ZONE =          -5453.82
     UNSATURATED ZONE =       -1559824.67       UNSATURATED ZONE =         -19857.30
       SATURATED ZONE =         385706.51         SATURATED ZONE =           4899.08

 OVERALL BUDGET ERROR =           4179.70           BUDGET ERROR =             -8.63


  PERCENT DISCREPANCY =              0.29    PERCENT DISCREPANCY =             -0.04



1
 SUMMARY VOLUMETRIC BUDGET FOR GSFLOW 
 DATE: 11 18 1990              CUMULATIVE TIME STEP:      18
 MODFLOW STRESS PERIOD      3     CURRENT TIME STEP:      49     ITERATIONS:       6

 -----------------------------------------------------------------------------------

   CUMULATIVE VOLUMES               L**3   RATES FOR THIS TIME STEP           L**3/T
   ------------------                      ------------------------

                                     IN                                         IN
                                     --                                         --
        PRECIPITATION =         747883.35          PRECIPITATION =                  
           STREAMFLOW =                               STREAMFLOW =                  
     GW BOUNDARY FLOW =                         GW BOUNDARY FLOW =                  


                                    OUT                                        OUT
                                    ---                                        ---
   EVAPOTRANSPIRATION =        1155114.52     EVAPOTRANSPIRATION =           5078.37
           STREAMFLOW =         437888.01             STREAMFLOW =          10667.65
     GW BOUNDARY FLOW =           1770.45       GW BOUNDARY FLOW =             35.88

   INFLOWS - OUTFLOWS =        -846889.63     INFLOWS - OUTFLOWS =         -15781.91
             --------                                   --------

 TOTAL STORAGE CHANGE =        -851065.95         STORAGE CHANGE =         -15786.91
       --------------                             --------------
         LAND SURFACE =           7868.08           LAND SURFACE =          -3691.47
            SOIL ZONE =         404200.03              SOIL ZONE =           -748.89
     UNSATURATED ZONE =       -1692999.48       UNSATURATED ZONE =         -18610.71
       SATURATED ZONE =         429865.37         SATURATED ZONE =           7264.17

 OVERALL BUDGET ERROR =           4176.32           BUDGET ERROR =              5.00


  PERCENT DISCREPANCY =              0.26    PERCENT DISCREPANCY =              0.03



1
 SUMMARY VOLUMETRIC BUDGET FOR GSFLOW 
 DATE: 11 25 1990              CUMULATIVE TIME STEP:      25
 MODFLOW STRESS PERIOD      3     CURRENT TIME STEP:      56     ITERATIONS:       6

 -----------------------------------------------------------------------------------

   CUMULATIVE VOLUMES               L**3   RATES FOR THIS TIME STEP           L**3/T
   ------------------                      ------------------------

                                     IN                                         IN
                                     --                                         --
        PRECIPITATION =        1009043.38          PRECIPITATION =         186542.88
           STREAMFLOW =                               STREAMFLOW =                  
     GW BOUNDARY FLOW =                         GW BOUNDARY FLOW =                  


                                    OUT                                        OUT
                                    ---                                        ---
   EVAPOTRANSPIRATION =        1215720.18     EVAPOTRANSPIRATION =           3754.61
           STREAMFLOW =         513878.81             STREAMFLOW =          10877.09
     GW BOUNDARY FLOW =           2021.40       GW BOUNDARY FLOW =             35.79

   INFLOWS - OUTFLOWS =        -722577.00     INFLOWS - OUTFLOWS =         171875.38
             --------                                   --------

 TOTAL STORAGE CHANGE =        -728855.00         STORAGE CHANGE =         170024.31
       --------------                             --------------
         LAND SURFACE =          86180.68           LAND SURFACE =          69567.13
            SOIL ZONE =         526288.04              SOIL ZONE =         112082.10
     UNSATURATED ZONE =       -1820601.41       UNSATURATED ZONE =         -17905.24
       SATURATED ZONE =         479277.63         SATURATED ZONE =           6280.32

 OVERALL BUDGET ERROR =           6277.99           BUDGET ERROR =           1851.08


  PERCENT DISCREPANCY =              0.36    PERCENT DISCREPANCY =              1.00



1
 SUMMARY VOLUMETRIC BUDGET FOR GSFLOW 
 DATE: 12 02 1990              CUMULATIVE TIME STEP:       2
 MODFLOW STRESS PERIOD      4     CURRENT TIME STEP:      63     ITERATIONS:       6

 -----------------------------------------------------------------------------------

   CUMULATIVE VOLUMES               L**3   RATES FOR THIS TIME STEP           L**3/T
   ------------------                      ------------------------

                                     IN                                         IN
                                     --                                         --
        PRECIPITATION =        1449284.55          PRECIPITATION =                  
           STREAMFLOW =                               STREAMFLOW =                  
     GW BOUNDARY FLOW =                         GW BOUNDARY FLOW =                  


                                    OUT                                        OUT
                                    ---                                        ---
   EVAPOTRANSPIRATION =        1222237.24     EVAPOTRANSPIRATION =            236.03
           STREAMFLOW =         591089.72             STREAMFLOW =          11070.96
     GW BOUNDARY FLOW =           2271.88       GW BOUNDARY FLOW =             35.77

   INFLOWS - OUTFLOWS =        -366314.28     INFLOWS - OUTFLOWS =         -11342.75
             --------                                   --------

 TOTAL STORAGE CHANGE =        -373708.08         STORAGE CHANGE =         -11354.41
       --------------                             --------------
         LAND SURFACE =         486845.62           LAND SURFACE =           -339.04
            SOIL ZONE =         558547.42              SOIL ZONE =            142.21
     UNSATURATED ZONE =       -1943446.98       UNSATURATED ZONE =         -17255.08
       SATURATED ZONE =         524345.77         SATURATED ZONE =           6097.50

 OVERALL BUDGET ERROR =           7393.79           BUDGET ERROR =             11.66


  PERCENT DISCREPANCY =              0.41    PERCENT DISCREPANCY =              0.10



1
 SUMMARY VOLUMETRIC BUDGET FOR GSFLOW 
 DATE: 12 09 1990              CUMULATIVE TIME STEP:       9
 MODFLOW STRESS PERIOD      4     CURRENT TIME STEP:      70     ITERATIONS:       6

 -----------------------------------------------------------------------------------

   CUMULATIVE VOLUMES               L**3   RATES FOR THIS TIME STEP           L**3/T
   ------------------                      ------------------------

                                     IN                                         IN
                                     --                                         --
        PRECIPITATION =        1449284.55          PRECIPITATION =                  
           STREAMFLOW =                               STREAMFLOW =                  
     GW BOUNDARY FLOW =                         GW BOUNDARY FLOW =                  


                                    OUT                                        OUT
                                    ---                                        ---
   EVAPOTRANSPIRATION =        1298326.17     EVAPOTRANSPIRATION =          13898.55
           STREAMFLOW =         668846.90             STREAMFLOW =          10925.30
     GW BOUNDARY FLOW =           2521.85       GW BOUNDARY FLOW =             35.65

   INFLOWS - OUTFLOWS =        -520410.36     INFLOWS - OUTFLOWS =         -24859.50
             --------                                   --------

 TOTAL STORAGE CHANGE =        -532166.82         STORAGE CHANGE =         -24953.07
       --------------                             --------------
         LAND SURFACE =          67215.41           LAND SURFACE =         -45889.70
            SOIL ZONE =         901043.18              SOIL ZONE =          33505.79
     UNSATURATED ZONE =       -2061295.21       UNSATURATED ZONE =         -16494.64
       SATURATED ZONE =         560869.68         SATURATED ZONE =           3925.46

 OVERALL BUDGET ERROR =          11756.46           BUDGET ERROR =             93.58


  PERCENT DISCREPANCY =              0.60    PERCENT DISCREPANCY =              0.38



1
 SUMMARY VOLUMETRIC BUDGET FOR GSFLOW 
 DATE: 12 16 1990              CUMULATIVE TIME STEP:      16
 MODFLOW STRESS PERIOD      4     CURRENT TIME STEP:      77     ITERATIONS:       5

 -----------------------------------------------------------------------------------

   CUMULATIVE VOLUMES               L**3   RATES FOR THIS TIME STEP           L**3/T
   ------------------                      ------------------------

                                     IN                                         IN
                                     --                                         --
        PRECIPITATION =        1804962.84          PRECIPITATION =                  
           STREAMFLOW =                               STREAMFLOW =                  
     GW BOUNDARY FLOW =                         GW BOUNDARY FLOW =                  


                                    OUT                                        OUT
                                    ---                                        ---
   EVAPOTRANSPIRATION =        1326663.55     EVAPOTRANSPIRATION =                  
           STREAMFLOW =         748562.86             STREAMFLOW =          11517.23
     GW BOUNDARY FLOW =           2771.26       GW BOUNDARY FLOW =             35.61

   INFLOWS - OUTFLOWS =        -273034.83     INFLOWS - OUTFLOWS =         -11552.84
             --------                                   --------

 TOTAL STORAGE CHANGE =        -287051.71         STORAGE CHANGE =         -11568.11
       --------------                             --------------
         LAND SURFACE =         252566.26           LAND SURFACE =                  
            SOIL ZONE =        1043418.66              SOIL ZONE =            -33.04
     UNSATURATED ZONE =       -2174637.86       UNSATURATED ZONE =         -15930.26
       SATURATED ZONE =         591601.08         SATURATED ZONE =           4395.18

 OVERALL BUDGET ERROR =          14016.88           BUDGET ERROR =             15.27


  PERCENT DISCREPANCY =              0.67    PERCENT DISCREPANCY =              0.13



1
 SUMMARY VOLUMETRIC BUDGET FOR GSFLOW 
 DATE: 12 23 1990              CUMULATIVE TIME STEP:      23
 MODFLOW STRESS PERIOD      4     CURRENT TIME STEP:      84     ITERATIONS:       6

 -----------------------------------------------------------------------------------

   CUMULATIVE VOLUMES               L**3   RATES FOR THIS TIME STEP           L**3/T
   ------------------                      ------------------------

                                     IN                                         IN
                                     --                                         --
        PRECIPITATION =        2276236.55          PRECIPITATION =                  
           STREAMFLOW =                               STREAMFLOW =                  
     GW BOUNDARY FLOW =              0.08       GW BOUNDARY FLOW =              0.04


                                    OUT                                        OUT
                                    ---                                        ---
   EVAPOTRANSPIRATION =        1327725.50     EVAPOTRANSPIRATION =                  
           STREAMFLOW =         829362.18             STREAMFLOW =          11565.42
     GW BOUNDARY FLOW =           3020.29       GW BOUNDARY FLOW =             35.57

   INFLOWS - OUTFLOWS =         116128.66     INFLOWS - OUTFLOWS =         -11600.95
             --------                                   --------

 TOTAL STORAGE CHANGE =         102020.93         STORAGE CHANGE =         -11612.95
       --------------                             --------------
         LAND SURFACE =         722784.34           LAND SURFACE =                  
            SOIL ZONE =        1043535.21              SOIL ZONE =             46.48
     UNSATURATED ZONE =       -2283836.34       UNSATURATED ZONE =         -15355.27
       SATURATED ZONE =         619537.53         SATURATED ZONE =           3695.83

 OVERALL BUDGET ERROR =          14107.72           BUDGET ERROR =             12.00


  PERCENT DISCREPANCY =              0.62    PERCENT DISCREPANCY =              0.10



1
 SUMMARY VOLUMETRIC BUDGET FOR GSFLOW 
 DATE: 12 30 1990              CUMULATIVE TIME STEP:      30
 MODFLOW STRESS PERIOD      4     CURRENT TIME STEP:      91     ITERATIONS:       5

 -----------------------------------------------------------------------------------

   CUMULATIVE VOLUMES               L**3   RATES FOR THIS TIME STEP           L**3/T
   ------------------                      ------------------------

                                     IN                                         IN
                                     --                                         --
        PRECIPITATION =        2276236.55          PRECIPITATION =                  
           STREAMFLOW =                               STREAMFLOW =                  
     GW BOUNDARY FLOW =              0.77       GW BOUNDARY FLOW =              0.14


                                    OUT                                        OUT
                                    ---                                        ---
   EVAPOTRANSPIRATION =        1328295.66     EVAPOTRANSPIRATION =                  
           STREAMFLOW =         910571.26             STREAMFLOW =          11632.43
     GW BOUNDARY FLOW =           3269.40       GW BOUNDARY FLOW =             35.60

   INFLOWS - OUTFLOWS =          34101.00     INFLOWS - OUTFLOWS =         -11667.89
             --------                                   --------

 TOTAL STORAGE CHANGE =          19921.04         STORAGE CHANGE =         -11677.53
       --------------                             --------------
         LAND SURFACE =         722216.94           LAND SURFACE =                  
            SOIL ZONE =        1044063.22              SOIL ZONE =             94.68
     UNSATURATED ZONE =       -2389122.44       UNSATURATED ZONE =         -14806.28
       SATURATED ZONE =         642763.09         SATURATED ZONE =           3034.06

 OVERALL BUDGET ERROR =          14179.96           BUDGET ERROR =              9.65


  PERCENT DISCREPANCY =              0.62    PERCENT DISCREPANCY =              0.08



1
 SUMMARY VOLUMETRIC BUDGET FOR GSFLOW 
 DATE: 01 06 1991              CUMULATIVE TIME STEP:       6
 MODFLOW STRESS PERIOD      5     CURRENT TIME STEP:      98     ITERATIONS:       5

 -----------------------------------------------------------------------------------

   CUMULATIVE VOLUMES               L**3   RATES FOR THIS TIME STEP           L**3/T
   ------------------                      ------------------------

                                     IN                                         IN
                                     --                                         --
        PRECIPITATION =        2276236.55          PRECIPITATION =                  
           STREAMFLOW =                               STREAMFLOW =                  
     GW BOUNDARY FLOW =              2.09       GW BOUNDARY FLOW =              0.22


                                    OUT                                        OUT
                                    ---                                        ---
   EVAPOTRANSPIRATION =        1355379.40     EVAPOTRANSPIRATION =           3191.05
           STREAMFLOW =         992451.95             STREAMFLOW =          11739.11
     GW BOUNDARY FLOW =           3519.29       GW BOUNDARY FLOW =             35.75

   INFLOWS - OUTFLOWS =         -75111.99     INFLOWS - OUTFLOWS =         -14965.69
             --------                                   --------

 TOTAL STORAGE CHANGE =         -91841.45         STORAGE CHANGE =         -15098.00
       --------------                             --------------
         LAND SURFACE =         592099.77           LAND SURFACE =          -8106.31
            SOIL ZONE =        1145317.81              SOIL ZONE =           4881.95
     UNSATURATED ZONE =       -2490474.81       UNSATURATED ZONE =         -14245.98
       SATURATED ZONE =         661215.50         SATURATED ZONE =           2372.33

 OVERALL BUDGET ERROR =          16729.46           BUDGET ERROR =            132.31


  PERCENT DISCREPANCY =              0.71    PERCENT DISCREPANCY =              0.88



1
 SUMMARY VOLUMETRIC BUDGET FOR GSFLOW 
 DATE: 01 13 1991              CUMULATIVE TIME STEP:      13
 MODFLOW STRESS PERIOD      5     CURRENT TIME STEP:     105     ITERATIONS:       6

 -----------------------------------------------------------------------------------

   CUMULATIVE VOLUMES               L**3   RATES FOR THIS TIME STEP           L**3/T
   ------------------                      ------------------------

                                     IN                                         IN
                                     --                                         --
        PRECIPITATION =        2596386.94          PRECIPITATION =          10327.43
           STREAMFLOW =                               STREAMFLOW =                  
     GW BOUNDARY FLOW =              4.01       GW BOUNDARY FLOW =              0.31


                                    OUT                                        OUT
                                    ---                                        ---
   EVAPOTRANSPIRATION =        1422327.40     EVAPOTRANSPIRATION =          18640.97
           STREAMFLOW =        1074779.46             STREAMFLOW =          11743.67
     GW BOUNDARY FLOW =           3769.51       GW BOUNDARY FLOW =             35.73

   INFLOWS - OUTFLOWS =          95514.58     INFLOWS - OUTFLOWS =         -20092.62
             --------                                   --------

 TOTAL STORAGE CHANGE =          73839.89         STORAGE CHANGE =         -21315.96
       --------------                             --------------
         LAND SURFACE =         529885.07           LAND SURFACE =        -135264.71
            SOIL ZONE =        1457678.08              SOIL ZONE =         126518.53
     UNSATURATED ZONE =       -2587760.92       UNSATURATED ZONE =         -13692.73
       SATURATED ZONE =         674037.33         SATURATED ZONE =           1122.94

 OVERALL BUDGET ERROR =          21674.69           BUDGET ERROR =           1223.34

  ***WARNING, FLUX RATES OFF > 3%

  PERCENT DISCREPANCY =              0.84    PERCENT DISCREPANCY =              3.94



1
 SUMMARY VOLUMETRIC BUDGET FOR GSFLOW 
 DATE: 01 20 1991              CUMULATIVE TIME STEP:      20
 MODFLOW STRESS PERIOD      5     CURRENT TIME STEP:     112     ITERATIONS:       5

 -----------------------------------------------------------------------------------

   CUMULATIVE VOLUMES               L**3   RATES FOR THIS TIME STEP           L**3/T
   ------------------                      ------------------------

                                     IN                                         IN
                                     --                                         --
        PRECIPITATION =        2596386.94          PRECIPITATION =                  
           STREAMFLOW =                               STREAMFLOW =                  
     GW BOUNDARY FLOW =              6.54       GW BOUNDARY FLOW =              0.40


                                    OUT                                        OUT
                                    ---                                        ---
   EVAPOTRANSPIRATION =        1499701.94     EVAPOTRANSPIRATION =           2461.50
           STREAMFLOW =        1157993.89             STREAMFLOW =          11904.78
     GW BOUNDARY FLOW =           4019.77       GW BOUNDARY FLOW =             35.75

   INFLOWS - OUTFLOWS =         -65322.11     INFLOWS - OUTFLOWS =         -14401.64
             --------                                   --------

 TOTAL STORAGE CHANGE =         -87764.84         STORAGE CHANGE =         -14400.83
       --------------                             --------------
         LAND SURFACE =         356897.60           LAND SURFACE =           -433.81
            SOIL ZONE =        1553190.57              SOIL ZONE =          -1975.82
     UNSATURATED ZONE =       -2681156.73       UNSATURATED ZONE =         -13122.33
       SATURATED ZONE =         683303.32         SATURATED ZONE =           1131.12

 OVERALL BUDGET ERROR =          22442.74           BUDGET ERROR =             -0.81


  PERCENT DISCREPANCY =              0.84    PERCENT DISCREPANCY =             -0.01



1
 SUMMARY VOLUMETRIC BUDGET FOR GSFLOW 
 DATE: 01 27 1991              CUMULATIVE TIME STEP:      27
 MODFLOW STRESS PERIOD      5     CURRENT TIME STEP:     119     ITERATIONS:       5

 -----------------------------------------------------------------------------------

   CUMULATIVE VOLUMES               L**3   RATES FOR THIS TIME STEP           L**3/T
   ------------------                      ------------------------

                                     IN                                         IN
                                     --                                         --
        PRECIPITATION =        2596386.94          PRECIPITATION =                  
           STREAMFLOW =                               STREAMFLOW =                  
     GW BOUNDARY FLOW =              9.65       GW BOUNDARY FLOW =              0.48


                                    OUT                                        OUT
                                    ---                                        ---
   EVAPOTRANSPIRATION =        1525603.79     EVAPOTRANSPIRATION =           1702.93
           STREAMFLOW =        1241323.11             STREAMFLOW =          11925.59
     GW BOUNDARY FLOW =           4269.98       GW BOUNDARY FLOW =             35.74

   INFLOWS - OUTFLOWS =        -174800.28     INFLOWS - OUTFLOWS =         -13663.78
             --------                                   --------

 TOTAL STORAGE CHANGE =        -197459.92         STORAGE CHANGE =         -13675.70
       --------------                             --------------
         LAND SURFACE =         323033.09           LAND SURFACE =           -547.84
            SOIL ZONE =        1561772.72              SOIL ZONE =          -1075.33
     UNSATURATED ZONE =       -2771075.36       UNSATURATED ZONE =         -12628.05
       SATURATED ZONE =         688809.18         SATURATED ZONE =            575.51

 OVERALL BUDGET ERROR =          22659.64           BUDGET ERROR =             11.92


  PERCENT DISCREPANCY =              0.81    PERCENT DISCREPANCY =              0.09



1
 SUMMARY VOLUMETRIC BUDGET FOR GSFLOW 
 DATE: 02 03 1991              CUMULATIVE TIME STEP:       3
 MODFLOW STRESS PERIOD      6     CURRENT TIME STEP:     126     ITERATIONS:       6

 -----------------------------------------------------------------------------------

   CUMULATIVE VOLUMES               L**3   RATES FOR THIS TIME STEP           L**3/T
   ------------------                      ------------------------

                                     IN                                         IN
                                     --                                         --
        PRECIPITATION =        3228422.31          PRECIPITATION =          30459.53
           STREAMFLOW =                               STREAMFLOW =                  
     GW BOUNDARY FLOW =             13.30       GW BOUNDARY FLOW =              0.55


                                    OUT                                        OUT
                                    ---                                        ---
   EVAPOTRANSPIRATION =        1632616.31     EVAPOTRANSPIRATION =          21403.89
           STREAMFLOW =        1326269.46             STREAMFLOW =          12243.89
     GW BOUNDARY FLOW =           4520.11       GW BOUNDARY FLOW =             35.74

   INFLOWS - OUTFLOWS =         265029.73     INFLOWS - OUTFLOWS =          -3223.43
             --------                                   --------

 TOTAL STORAGE CHANGE =         235480.53         STORAGE CHANGE =          -3497.06
       --------------                             --------------
         LAND SURFACE =         157683.43           LAND SURFACE =         -26376.35
            SOIL ZONE =        2245466.86              SOIL ZONE =          35072.35
     UNSATURATED ZONE =       -2857681.08       UNSATURATED ZONE =         -12195.24
       SATURATED ZONE =         690010.80         SATURATED ZONE =              2.17

 OVERALL BUDGET ERROR =          29549.21           BUDGET ERROR =            273.63


  PERCENT DISCREPANCY =              0.92    PERCENT DISCREPANCY =              0.81



1
 SUMMARY VOLUMETRIC BUDGET FOR GSFLOW 
 DATE: 02 10 1991              CUMULATIVE TIME STEP:      10
 MODFLOW STRESS PERIOD      6     CURRENT TIME STEP:     133     ITERATIONS:       5

 -----------------------------------------------------------------------------------

   CUMULATIVE VOLUMES               L**3   RATES FOR THIS TIME STEP           L**3/T
   ------------------                      ------------------------

                                     IN                                         IN
                                     --                                         --
        PRECIPITATION =        3510173.01          PRECIPITATION =                  
           STREAMFLOW =                               STREAMFLOW =                  
     GW BOUNDARY FLOW =             17.48       GW BOUNDARY FLOW =              0.63


                                    OUT                                        OUT
                                    ---                                        ---
   EVAPOTRANSPIRATION =        1800398.89     EVAPOTRANSPIRATION =          25669.07
           STREAMFLOW =        1412461.64             STREAMFLOW =          12169.78
     GW BOUNDARY FLOW =           4770.20       GW BOUNDARY FLOW =             35.72

   INFLOWS - OUTFLOWS =         292559.77     INFLOWS - OUTFLOWS =         -37873.94
             --------                                   --------

 TOTAL STORAGE CHANGE =         260507.48         STORAGE CHANGE =         -37797.28
       --------------                             --------------
         LAND SURFACE =          75877.11           LAND SURFACE =          -8469.89
            SOIL ZONE =        2437270.76              SOIL ZONE =         -17128.46
     UNSATURATED ZONE =       -2940850.39       UNSATURATED ZONE =         -11688.91
       SATURATED ZONE =         688209.41         SATURATED ZONE =           -510.03

 OVERALL BUDGET ERROR =          32052.29           BUDGET ERROR =            -76.66


  PERCENT DISCREPANCY =              0.92    PERCENT DISCREPANCY =             -0.20



1
 SUMMARY VOLUMETRIC BUDGET FOR GSFLOW 
 DATE: 02 17 1991              CUMULATIVE TIME STEP:      17
 MODFLOW STRESS PERIOD      6     CURRENT TIME STEP:     140     ITERATIONS:       5

 -----------------------------------------------------------------------------------

   CUMULATIVE VOLUMES               L**3   RATES FOR THIS TIME STEP           L**3/T
   ------------------                      ------------------------

                                     IN                                         IN
                                     --                                         --
        PRECIPITATION =        3510173.01          PRECIPITATION =                  
           STREAMFLOW =                               STREAMFLOW =                  
     GW BOUNDARY FLOW =             22.15       GW BOUNDARY FLOW =              0.70


                                    OUT                                        OUT
                                    ---                                        ---
   EVAPOTRANSPIRATION =        2043457.80     EVAPOTRANSPIRATION =          23705.62
           STREAMFLOW =        1497198.00             STREAMFLOW =          12102.80
     GW BOUNDARY FLOW =           5020.13       GW BOUNDARY FLOW =             35.68

   INFLOWS - OUTFLOWS =         -35480.77     INFLOWS - OUTFLOWS =         -35843.40
             --------                                   --------

 TOTAL STORAGE CHANGE =         -66761.90         STORAGE CHANGE =         -35767.47
       --------------                             --------------
         LAND SURFACE =          17890.99           LAND SURFACE =          -1143.67
            SOIL ZONE =        2253409.38              SOIL ZONE =         -22482.82
     UNSATURATED ZONE =       -3020478.39       UNSATURATED ZONE =         -11093.35
       SATURATED ZONE =         682415.44         SATURATED ZONE =          -1047.65

 OVERALL BUDGET ERROR =          31281.13           BUDGET ERROR =            -75.93


  PERCENT DISCREPANCY =              0.88    PERCENT DISCREPANCY =             -0.21



1
 SUMMARY VOLUMETRIC BUDGET FOR GSFLOW 
 DATE: 02 24 1991              CUMULATIVE TIME STEP:      24
 MODFLOW STRESS PERIOD      6     CURRENT TIME STEP:     147     ITERATIONS:       5

 -----------------------------------------------------------------------------------

   CUMULATIVE VOLUMES               L**3   RATES FOR THIS TIME STEP           L**3/T
   ------------------                      ------------------------

                                     IN                                         IN
                                     --                                         --
        PRECIPITATION =        3510173.01          PRECIPITATION =                  
           STREAMFLOW =                               STREAMFLOW =                  
     GW BOUNDARY FLOW =             27.30       GW BOUNDARY FLOW =              0.76


                                    OUT                                        OUT
                                    ---                                        ---
   EVAPOTRANSPIRATION =        2256889.41     EVAPOTRANSPIRATION =          21630.88
           STREAMFLOW =        1581446.90             STREAMFLOW =          12006.92
     GW BOUNDARY FLOW =           5269.16       GW BOUNDARY FLOW =             35.48

   INFLOWS - OUTFLOWS =        -333405.16     INFLOWS - OUTFLOWS =         -33672.52
             --------                                   --------

 TOTAL STORAGE CHANGE =        -363982.22         STORAGE CHANGE =         -33598.84
       --------------                             --------------
         LAND SURFACE =           7435.72           LAND SURFACE =           -217.69
            SOIL ZONE =        2052120.63              SOIL ZONE =         -21128.20
     UNSATURATED ZONE =       -3096475.76       UNSATURATED ZONE =         -10682.94
       SATURATED ZONE =         672936.41         SATURATED ZONE =          -1570.01

 OVERALL BUDGET ERROR =          30577.06           BUDGET ERROR =            -73.69


  PERCENT DISCREPANCY =              0.79    PERCENT DISCREPANCY =             -0.22



1
 SUMMARY VOLUMETRIC BUDGET FOR GSFLOW 
 DATE: 03 03 1991              CUMULATIVE TIME STEP:       3
 MODFLOW STRESS PERIOD      7     CURRENT TIME STEP:     154     ITERATIONS:       5

 -----------------------------------------------------------------------------------

   CUMULATIVE VOLUMES               L**3   RATES FOR THIS TIME STEP           L**3/T
   ------------------                      ------------------------

                                     IN                                         IN
                                     --                                         --
        PRECIPITATION =        6220189.63          PRECIPITATION =        1243187.24
           STREAMFLOW =                               STREAMFLOW =                  
     GW BOUNDARY FLOW =             32.90       GW BOUNDARY FLOW =              0.83


                                    OUT                                        OUT
                                    ---                                        ---
   EVAPOTRANSPIRATION =        2408960.60     EVAPOTRANSPIRATION =           8455.90
           STREAMFLOW =        1665249.93             STREAMFLOW =          12342.11
     GW BOUNDARY FLOW =           5516.86       GW BOUNDARY FLOW =             35.34

   INFLOWS - OUTFLOWS =        2140495.15     INFLOWS - OUTFLOWS =        1222354.72
             --------                                   --------

 TOTAL STORAGE CHANGE =        2103071.33         STORAGE CHANGE =        1215048.93
       --------------                             --------------
         LAND SURFACE =        2352761.88           LAND SURFACE =         894135.84
            SOIL ZONE =        2261428.92              SOIL ZONE =         333577.59
     UNSATURATED ZONE =       -3169450.61       UNSATURATED ZONE =         -10276.36
       SATURATED ZONE =         658330.27         SATURATED ZONE =          -2388.17

 OVERALL BUDGET ERROR =          37423.82           BUDGET ERROR =           7305.80


  PERCENT DISCREPANCY =              0.60    PERCENT DISCREPANCY =              0.59



1
 SUMMARY VOLUMETRIC BUDGET FOR GSFLOW 
 DATE: 03 10 1991              CUMULATIVE TIME STEP:      10
 MODFLOW STRESS PERIOD      7     CURRENT TIME STEP:     161     ITERATIONS:       5

 -----------------------------------------------------------------------------------

   CUMULATIVE VOLUMES               L**3   RATES FOR THIS TIME STEP           L**3/T
   ------------------                      ------------------------

                                     IN                                         IN
                                     --                                         --
        PRECIPITATION =        8746030.42          PRECIPITATION =          32888.55
           STREAMFLOW =                               STREAMFLOW =                  
     GW BOUNDARY FLOW =             38.93       GW BOUNDARY FLOW =              0.89


                                    OUT                                        OUT
                                    ---                                        ---
   EVAPOTRANSPIRATION =        2482256.19     EVAPOTRANSPIRATION =           8863.51
           STREAMFLOW =        1852039.40             STREAMFLOW =          22347.91
     GW BOUNDARY FLOW =           5765.83       GW BOUNDARY FLOW =             35.45

   INFLOWS - OUTFLOWS =        4406007.93     INFLOWS - OUTFLOWS =           1642.57
             --------                                   --------

 TOTAL STORAGE CHANGE =        4355503.94         STORAGE CHANGE =           1391.74
       --------------                             --------------
         LAND SURFACE =        2523463.28           LAND SURFACE =         -14137.08
            SOIL ZONE =        4369813.74              SOIL ZONE =          18878.80
     UNSATURATED ZONE =       -3190864.26       UNSATURATED ZONE =          -2034.47
       SATURATED ZONE =         653090.13         SATURATED ZONE =          -1315.54

 OVERALL BUDGET ERROR =          50503.99           BUDGET ERROR =            250.83


  PERCENT DISCREPANCY =              0.58    PERCENT DISCREPANCY =              0.77



1
 SUMMARY VOLUMETRIC BUDGET FOR GSFLOW 
 DATE: 03 17 1991              CUMULATIVE TIME STEP:      17
 MODFLOW STRESS PERIOD      7     CURRENT TIME STEP:     168     ITERATIONS:       5

 -----------------------------------------------------------------------------------

   CUMULATIVE VOLUMES               L**3   RATES FOR THIS TIME STEP           L**3/T
   ------------------                      ------------------------

                                     IN                                         IN
                                     --                                         --
        PRECIPITATION =        9897129.71          PRECIPITATION =         157865.04
           STREAMFLOW =                               STREAMFLOW =                  
     GW BOUNDARY FLOW =             45.37       GW BOUNDARY FLOW =              0.95


                                    OUT                                        OUT
                                    ---                                        ---
   EVAPOTRANSPIRATION =        2510095.02     EVAPOTRANSPIRATION =           8079.77
           STREAMFLOW =        1995715.73             STREAMFLOW =          19842.50
     GW BOUNDARY FLOW =           6013.14       GW BOUNDARY FLOW =             35.25

   INFLOWS - OUTFLOWS =        5385351.20     INFLOWS - OUTFLOWS =         129908.47
             --------                                   --------

 TOTAL STORAGE CHANGE =        5334955.49         STORAGE CHANGE =         129953.63
       --------------                             --------------
         LAND SURFACE =        3672302.31           LAND SURFACE =         157496.61
            SOIL ZONE =        4230659.68              SOIL ZONE =         -22649.79
     UNSATURATED ZONE =       -3208699.54       UNSATURATED ZONE =          -2834.75
       SATURATED ZONE =         640691.76         SATURATED ZONE =          -2058.46

 OVERALL BUDGET ERROR =          50395.71           BUDGET ERROR =            -45.17


  PERCENT DISCREPANCY =              0.51    PERCENT DISCREPANCY =             -0.03



1
 SUMMARY VOLUMETRIC BUDGET FOR GSFLOW 
 DATE: 03 24 1991              CUMULATIVE TIME STEP:      24
 MODFLOW STRESS PERIOD      7     CURRENT TIME STEP:     175     ITERATIONS:       5

 -----------------------------------------------------------------------------------

   CUMULATIVE VOLUMES               L**3   RATES FOR THIS TIME STEP           L**3/T
   ------------------                      ------------------------

                                     IN                                         IN
                                     --                                         --
        PRECIPITATION =        1.1673D+07          PRECIPITATION =        1230031.83
           STREAMFLOW =                               STREAMFLOW =                  
     GW BOUNDARY FLOW =             52.22       GW BOUNDARY FLOW =              1.00


                                    OUT                                        OUT
                                    ---                                        ---
   EVAPOTRANSPIRATION =        2548921.31     EVAPOTRANSPIRATION =           4663.50
           STREAMFLOW =        2130390.17             STREAMFLOW =          18927.40
     GW BOUNDARY FLOW =           6259.22       GW BOUNDARY FLOW =             35.09

   INFLOWS - OUTFLOWS =        6987593.02     INFLOWS - OUTFLOWS =        1206406.85
             --------                                   --------

 TOTAL STORAGE CHANGE =        6937170.55         STORAGE CHANGE =        1206409.70
       --------------                             --------------
         LAND SURFACE =        5426161.22           LAND SURFACE =        1230031.83
            SOIL ZONE =        4118594.04              SOIL ZONE =         -17533.94
     UNSATURATED ZONE =       -3232168.82       UNSATURATED ZONE =          -3609.98
       SATURATED ZONE =         624582.63         SATURATED ZONE =          -2478.24

 OVERALL BUDGET ERROR =          50422.47           BUDGET ERROR =             -2.84


  PERCENT DISCREPANCY =              0.43    PERCENT DISCREPANCY =             -0.00



1
 SUMMARY VOLUMETRIC BUDGET FOR GSFLOW 
 DATE: 03 31 1991              CUMULATIVE TIME STEP:      31
 MODFLOW STRESS PERIOD      7     CURRENT TIME STEP:     182     ITERATIONS:       6

 -----------------------------------------------------------------------------------

   CUMULATIVE VOLUMES               L**3   RATES FOR THIS TIME STEP           L**3/T
   ------------------                      ------------------------

                                     IN                                         IN
                                     --                                         --
        PRECIPITATION =        1.2495D+07          PRECIPITATION =                  
           STREAMFLOW =                               STREAMFLOW =                  
     GW BOUNDARY FLOW =             59.46       GW BOUNDARY FLOW =              1.06


                                    OUT                                        OUT
                                    ---                                        ---
   EVAPOTRANSPIRATION =        2670685.77     EVAPOTRANSPIRATION =          48055.46
           STREAMFLOW =        2265026.61             STREAMFLOW =          22452.55
     GW BOUNDARY FLOW =           6504.33       GW BOUNDARY FLOW =             35.03

   INFLOWS - OUTFLOWS =        7553168.04     INFLOWS - OUTFLOWS =         -70541.98
             --------                                   --------

 TOTAL STORAGE CHANGE =        7501685.71         STORAGE CHANGE =         -71365.70
       --------------                             --------------
         LAND SURFACE =        5977198.26           LAND SURFACE =        -148137.48
            SOIL ZONE =        4175193.06              SOIL ZONE =          82021.65
     UNSATURATED ZONE =       -3257137.33       UNSATURATED ZONE =          -2574.69
       SATURATED ZONE =         606430.03         SATURATED ZONE =          -2675.21

 OVERALL BUDGET ERROR =          51482.32           BUDGET ERROR =            823.72


  PERCENT DISCREPANCY =              0.41    PERCENT DISCREPANCY =              1.16



1
 SUMMARY VOLUMETRIC BUDGET FOR GSFLOW 
 DATE: 04 07 1991              CUMULATIVE TIME STEP:       7
 MODFLOW STRESS PERIOD      8     CURRENT TIME STEP:     189     ITERATIONS:       7

 -----------------------------------------------------------------------------------

   CUMULATIVE VOLUMES               L**3   RATES FOR THIS TIME STEP           L**3/T
   ------------------                      ------------------------

                                     IN                                         IN
                                     --                                         --
        PRECIPITATION =        1.3018D+07          PRECIPITATION =                  
           STREAMFLOW =                               STREAMFLOW =                  
     GW BOUNDARY FLOW =             67.06       GW BOUNDARY FLOW =              1.11


                                    OUT                                        OUT
                                    ---                                        ---
   EVAPOTRANSPIRATION =        2978789.69     EVAPOTRANSPIRATION =          15960.30
           STREAMFLOW =        2587971.11             STREAMFLOW =          64569.64
     GW BOUNDARY FLOW =           6751.79       GW BOUNDARY FLOW =             35.61

   INFLOWS - OUTFLOWS =        7444291.21     INFLOWS - OUTFLOWS =         -80564.44
             --------                                   --------

 TOTAL STORAGE CHANGE =        7384785.88         STORAGE CHANGE =         -81032.62
       --------------                             --------------
         LAND SURFACE =        4335933.24           LAND SURFACE =         -73164.41
            SOIL ZONE =        5692506.68              SOIL ZONE =         -14953.11
     UNSATURATED ZONE =       -3234828.51       UNSATURATED ZONE =           9083.77
       SATURATED ZONE =         591172.51         SATURATED ZONE =          -1998.92

 OVERALL BUDGET ERROR =          59505.33           BUDGET ERROR =            468.18


  PERCENT DISCREPANCY =              0.46    PERCENT DISCREPANCY =              0.58



1
 SUMMARY VOLUMETRIC BUDGET FOR GSFLOW 
 DATE: 04 14 1991              CUMULATIVE TIME STEP:      14
 MODFLOW STRESS PERIOD      8     CURRENT TIME STEP:     196     ITERATIONS:       7

 -----------------------------------------------------------------------------------

   CUMULATIVE VOLUMES               L**3   RATES FOR THIS TIME STEP           L**3/T
   ------------------                      ------------------------

                                     IN                                         IN
                                     --                                         --
        PRECIPITATION =        1.3018D+07          PRECIPITATION =                  
           STREAMFLOW =                               STREAMFLOW =                  
     GW BOUNDARY FLOW =             74.99       GW BOUNDARY FLOW =              1.15


                                    OUT                                        OUT
                                    ---                                        ---
   EVAPOTRANSPIRATION =        3162905.25     EVAPOTRANSPIRATION =          42038.25
           STREAMFLOW =        3084517.27             STREAMFLOW =          75605.96
     GW BOUNDARY FLOW =           7001.13       GW BOUNDARY FLOW =             35.63

   INFLOWS - OUTFLOWS =        6763388.07     INFLOWS - OUTFLOWS =        -117678.69
             --------                                   --------

 TOTAL STORAGE CHANGE =        6701008.29         STORAGE CHANGE =        -118445.29
       --------------                             --------------
         LAND SURFACE =        3672284.11           LAND SURFACE =        -192335.10
            SOIL ZONE =        5625570.04              SOIL ZONE =          67588.03
     UNSATURATED ZONE =       -3174937.32       UNSATURATED ZONE =           8013.06
       SATURATED ZONE =         578089.19         SATURATED ZONE =          -1711.33

 OVERALL BUDGET ERROR =          62379.78           BUDGET ERROR =            766.59


  PERCENT DISCREPANCY =              0.48    PERCENT DISCREPANCY =              0.65



1
 SUMMARY VOLUMETRIC BUDGET FOR GSFLOW 
 DATE: 04 21 1991              CUMULATIVE TIME STEP:      21
 MODFLOW STRESS PERIOD      8     CURRENT TIME STEP:     203     ITERATIONS:       9

 -----------------------------------------------------------------------------------

   CUMULATIVE VOLUMES               L**3   RATES FOR THIS TIME STEP           L**3/T
   ------------------                      ------------------------

                                     IN                                         IN
                                     --                                         --
        PRECIPITATION =        1.3034D+07          PRECIPITATION =                  
           STREAMFLOW =                               STREAMFLOW =                  
     GW BOUNDARY FLOW =             83.21       GW BOUNDARY FLOW =              1.19


                                    OUT                                        OUT
                                    ---                                        ---
   EVAPOTRANSPIRATION =        3416546.45     EVAPOTRANSPIRATION =          46896.71
           STREAMFLOW =        3656726.24             STREAMFLOW =          93585.54
     GW BOUNDARY FLOW =           7250.69       GW BOUNDARY FLOW =             35.76

   INFLOWS - OUTFLOWS =        5953621.93     INFLOWS - OUTFLOWS =        -140516.82
             --------                                   --------

 TOTAL STORAGE CHANGE =        5887249.23         STORAGE CHANGE =        -141168.13
       --------------                             --------------
         LAND SURFACE =        2500870.94           LAND SURFACE =        -216968.59
            SOIL ZONE =        5933496.44              SOIL ZONE =          66921.57
     UNSATURATED ZONE =       -3113666.45       UNSATURATED ZONE =          10260.90
       SATURATED ZONE =         566545.66         SATURATED ZONE =          -1382.07

 OVERALL BUDGET ERROR =          66372.70           BUDGET ERROR =            651.31


  PERCENT DISCREPANCY =              0.51    PERCENT DISCREPANCY =              0.46



1
 SUMMARY VOLUMETRIC BUDGET FOR GSFLOW 
 DATE: 04 28 1991              CUMULATIVE TIME STEP:      28
 MODFLOW STRESS PERIOD      8     CURRENT TIME STEP:     210     ITERATIONS:       6

 -----------------------------------------------------------------------------------

   CUMULATIVE VOLUMES               L**3   RATES FOR THIS TIME STEP           L**3/T
   ------------------                      ------------------------

                                     IN                                         IN
                                     --                                         --
        PRECIPITATION =        1.3303D+07          PRECIPITATION =                  
           STREAMFLOW =                               STREAMFLOW =                  
     GW BOUNDARY FLOW =             91.70       GW BOUNDARY FLOW =              1.23


                                    OUT                                        OUT
                                    ---                                        ---
   EVAPOTRANSPIRATION =        3684974.41     EVAPOTRANSPIRATION =          58233.55
           STREAMFLOW =        4328010.31             STREAMFLOW =          95137.57
     GW BOUNDARY FLOW =           7500.84       GW BOUNDARY FLOW =             35.69

   INFLOWS - OUTFLOWS =        5283036.65     INFLOWS - OUTFLOWS =        -153405.58
             --------                                   --------

 TOTAL STORAGE CHANGE =        5213495.94         STORAGE CHANGE =        -153605.17
       --------------                             --------------
         LAND SURFACE =        1748447.64           LAND SURFACE =        -137153.52
            SOIL ZONE =        5946215.97              SOIL ZONE =         -25384.80
     UNSATURATED ZONE =       -3040134.05       UNSATURATED ZONE =           9976.50
       SATURATED ZONE =         558963.36         SATURATED ZONE =          -1043.40

 OVERALL BUDGET ERROR =          69540.72           BUDGET ERROR =            199.59


  PERCENT DISCREPANCY =              0.52    PERCENT DISCREPANCY =              0.13



1
 SUMMARY VOLUMETRIC BUDGET FOR GSFLOW 
 DATE: 05 05 1991              CUMULATIVE TIME STEP:       5
 MODFLOW STRESS PERIOD      9     CURRENT TIME STEP:     217     ITERATIONS:      71

 -----------------------------------------------------------------------------------

   CUMULATIVE VOLUMES               L**3   RATES FOR THIS TIME STEP           L**3/T
   ------------------                      ------------------------

                                     IN                                         IN
                                     --                                         --
        PRECIPITATION =        1.3510D+07          PRECIPITATION =                  
           STREAMFLOW =                               STREAMFLOW =                  
     GW BOUNDARY FLOW =            100.45       GW BOUNDARY FLOW =              1.27


                                    OUT                                        OUT
                                    ---                                        ---
   EVAPOTRANSPIRATION =        4062511.33     EVAPOTRANSPIRATION =          90413.58
           STREAMFLOW =        4936477.81             STREAMFLOW =          86681.98
     GW BOUNDARY FLOW =           7749.48       GW BOUNDARY FLOW =             35.45

   INFLOWS - OUTFLOWS =        4503069.96     INFLOWS - OUTFLOWS =        -177129.74
             --------                                   --------

 TOTAL STORAGE CHANGE =        4432332.78         STORAGE CHANGE =        -177187.57
       --------------                             --------------
         LAND SURFACE =        1036420.07           LAND SURFACE =        -150153.36
            SOIL ZONE =        5820038.57              SOIL ZONE =         -35748.84
     UNSATURATED ZONE =       -2976468.93       UNSATURATED ZONE =           7833.83
       SATURATED ZONE =         552339.63         SATURATED ZONE =            880.74

 OVERALL BUDGET ERROR =          70737.18           BUDGET ERROR =             57.83


  PERCENT DISCREPANCY =              0.52    PERCENT DISCREPANCY =              0.03



1
 SUMMARY VOLUMETRIC BUDGET FOR GSFLOW 
 DATE: 05 12 1991              CUMULATIVE TIME STEP:      12
 MODFLOW STRESS PERIOD      9     CURRENT TIME STEP:     224     ITERATIONS:       7

 -----------------------------------------------------------------------------------

   CUMULATIVE VOLUMES               L**3   RATES FOR THIS TIME STEP           L**3/T
   ------------------                      ------------------------

                                     IN                                         IN
                                     --                                         --
        PRECIPITATION =        1.4029D+07          PRECIPITATION =                  
           STREAMFLOW =                               STREAMFLOW =                  
     GW BOUNDARY FLOW =            109.47       GW BOUNDARY FLOW =              1.31


                                    OUT                                        OUT
                                    ---                                        ---
   EVAPOTRANSPIRATION =        4458135.53     EVAPOTRANSPIRATION =          68953.89
           STREAMFLOW =        5504683.74             STREAMFLOW =          84335.62
     GW BOUNDARY FLOW =           7996.42       GW BOUNDARY FLOW =             35.23

   INFLOWS - OUTFLOWS =        4058515.94     INFLOWS - OUTFLOWS =        -153323.44
             --------                                   --------

 TOTAL STORAGE CHANGE =        3986145.29         STORAGE CHANGE =        -153173.43
       --------------                             --------------
         LAND SURFACE =         579124.41           LAND SURFACE =        -205427.93
            SOIL ZONE =        5780502.29              SOIL ZONE =          45146.19
     UNSATURATED ZONE =       -2916480.16       UNSATURATED ZONE =           8524.25
       SATURATED ZONE =         542994.87         SATURATED ZONE =          -1416.01

 OVERALL BUDGET ERROR =          72370.65           BUDGET ERROR =           -150.01


  PERCENT DISCREPANCY =              0.52    PERCENT DISCREPANCY =             -0.10



1
 SUMMARY VOLUMETRIC BUDGET FOR GSFLOW 
 DATE: 05 19 1991              CUMULATIVE TIME STEP:      19
 MODFLOW STRESS PERIOD      9     CURRENT TIME STEP:     231     ITERATIONS:       9

 -----------------------------------------------------------------------------------

   CUMULATIVE VOLUMES               L**3   RATES FOR THIS TIME STEP           L**3/T
   ------------------                      ------------------------

                                     IN                                         IN
                                     --                                         --
        PRECIPITATION =        1.4365D+07          PRECIPITATION =                  
           STREAMFLOW =                               STREAMFLOW =                  
     GW BOUNDARY FLOW =            118.77       GW BOUNDARY FLOW =              1.34


                                    OUT                                        OUT
                                    ---                                        ---
   EVAPOTRANSPIRATION =        4896810.68     EVAPOTRANSPIRATION =          20444.02
           STREAMFLOW =        5998190.61             STREAMFLOW =          62469.09
     GW BOUNDARY FLOW =           8241.16       GW BOUNDARY FLOW =             34.78

   INFLOWS - OUTFLOWS =        3462254.63     INFLOWS - OUTFLOWS =         -82946.54
             --------                                   --------

 TOTAL STORAGE CHANGE =        3388989.55         STORAGE CHANGE =         -82918.18
       --------------                             --------------
         LAND SURFACE =         228252.15           LAND SURFACE =         -22354.64
            SOIL ZONE =        5497923.48              SOIL ZONE =         -64398.12
     UNSATURATED ZONE =       -2870315.20       UNSATURATED ZONE =           5247.42
       SATURATED ZONE =         533124.75         SATURATED ZONE =          -1412.90

 OVERALL BUDGET ERROR =          73265.08           BUDGET ERROR =            -28.36


  PERCENT DISCREPANCY =              0.51    PERCENT DISCREPANCY =             -0.03



1
 SUMMARY VOLUMETRIC BUDGET FOR GSFLOW 
 DATE: 05 26 1991              CUMULATIVE TIME STEP:      26
 MODFLOW STRESS PERIOD      9     CURRENT TIME STEP:     238     ITERATIONS:       8

 -----------------------------------------------------------------------------------

   CUMULATIVE VOLUMES               L**3   RATES FOR THIS TIME STEP           L**3/T
   ------------------                      ------------------------

                                     IN                                         IN
                                     --                                         --
        PRECIPITATION =        1.4426D+07          PRECIPITATION =                  
           STREAMFLOW =                               STREAMFLOW =                  
     GW BOUNDARY FLOW =            128.33       GW BOUNDARY FLOW =              1.39


                                    OUT                                        OUT
                                    ---                                        ---
   EVAPOTRANSPIRATION =        5581456.53     EVAPOTRANSPIRATION =          76900.78
           STREAMFLOW =        6353097.86             STREAMFLOW =          37606.32
     GW BOUNDARY FLOW =           8482.70       GW BOUNDARY FLOW =             34.22

   INFLOWS - OUTFLOWS =        2483588.86     INFLOWS - OUTFLOWS =        -114539.93
             --------                                   --------

 TOTAL STORAGE CHANGE =        2410343.77         STORAGE CHANGE =        -114652.97
       --------------                             --------------
         LAND SURFACE =          55233.90           LAND SURFACE =          -8157.37
            SOIL ZONE =        4686127.36              SOIL ZONE =        -104001.59
     UNSATURATED ZONE =       -2851954.43       UNSATURATED ZONE =           -381.35
       SATURATED ZONE =         520932.08         SATURATED ZONE =          -2112.73

 OVERALL BUDGET ERROR =          73245.10           BUDGET ERROR =            113.04


  PERCENT DISCREPANCY =              0.51    PERCENT DISCREPANCY =              0.10



1
 SUMMARY VOLUMETRIC BUDGET FOR GSFLOW 
 DATE: 06 02 1991              CUMULATIVE TIME STEP:       2
 MODFLOW STRESS PERIOD     10     CURRENT TIME STEP:     245     ITERATIONS:       8

 -----------------------------------------------------------------------------------

   CUMULATIVE VOLUMES               L**3   RATES FOR THIS TIME STEP           L**3/T
   ------------------                      ------------------------

                                     IN                                         IN
                                     --                                         --
        PRECIPITATION =        1.4671D+07          PRECIPITATION =                  
           STREAMFLOW =                               STREAMFLOW =                  
     GW BOUNDARY FLOW =            138.20       GW BOUNDARY FLOW =              1.43


                                    OUT                                        OUT
                                    ---                                        ---
   EVAPOTRANSPIRATION =        6170640.59     EVAPOTRANSPIRATION =         127566.24
           STREAMFLOW =        6581957.09             STREAMFLOW =          28632.46
     GW BOUNDARY FLOW =           8720.95       GW BOUNDARY FLOW =             33.89

   INFLOWS - OUTFLOWS =        1909794.36     INFLOWS - OUTFLOWS =        -156231.16
             --------                                   --------

 TOTAL STORAGE CHANGE =        1837032.09         STORAGE CHANGE =        -156029.35
       --------------                             --------------
         LAND SURFACE =          19760.70           LAND SURFACE =          -4094.13
            SOIL ZONE =        4180310.00              SOIL ZONE =        -146048.92
     UNSATURATED ZONE =       -2866364.99       UNSATURATED ZONE =          -3030.88
       SATURATED ZONE =         503321.01         SATURATED ZONE =          -2855.49

 OVERALL BUDGET ERROR =          72762.27           BUDGET ERROR =           -201.81


  PERCENT DISCREPANCY =              0.50    PERCENT DISCREPANCY =             -0.13



1
 SUMMARY VOLUMETRIC BUDGET FOR GSFLOW 
 DATE: 06 09 1991              CUMULATIVE TIME STEP:       9
 MODFLOW STRESS PERIOD     10     CURRENT TIME STEP:     252     ITERATIONS:       7

 -----------------------------------------------------------------------------------

   CUMULATIVE VOLUMES               L**3   RATES FOR THIS TIME STEP           L**3/T
   ------------------                      ------------------------

                                     IN                                         IN
                                     --                                         --
        PRECIPITATION =        1.4671D+07          PRECIPITATION =                  
           STREAMFLOW =                               STREAMFLOW =                  
     GW BOUNDARY FLOW =            148.36       GW BOUNDARY FLOW =              1.47


                                    OUT                                        OUT
                                    ---                                        ---
   EVAPOTRANSPIRATION =        6959120.11     EVAPOTRANSPIRATION =         172470.54
           STREAMFLOW =        6742152.51             STREAMFLOW =          19329.26
     GW BOUNDARY FLOW =           8956.72       GW BOUNDARY FLOW =             33.53

   INFLOWS - OUTFLOWS =         960893.83     INFLOWS - OUTFLOWS =        -191831.87
             --------                                   --------

 TOTAL STORAGE CHANGE =         889986.05         STORAGE CHANGE =        -191085.90
       --------------                             --------------
         LAND SURFACE =           3957.39           LAND SURFACE =          -2186.13
            SOIL ZONE =        3307318.69              SOIL ZONE =        -179045.95
     UNSATURATED ZONE =       -2900747.12       UNSATURATED ZONE =          -5964.66
       SATURATED ZONE =         479451.20         SATURATED ZONE =          -3889.25

 OVERALL BUDGET ERROR =          70907.78           BUDGET ERROR =           -745.97


  PERCENT DISCREPANCY =              0.48    PERCENT DISCREPANCY =             -0.39



1
 SUMMARY VOLUMETRIC BUDGET FOR GSFLOW 
 DATE: 06 16 1991              CUMULATIVE TIME STEP:      16
 MODFLOW STRESS PERIOD     10     CURRENT TIME STEP:     259     ITERATIONS:       6

 -----------------------------------------------------------------------------------

   CUMULATIVE VOLUMES               L**3   RATES FOR THIS TIME STEP           L**3/T
   ------------------                      ------------------------

                                     IN                                         IN
                                     --                                         --
        PRECIPITATION =        1.4671D+07          PRECIPITATION =                  
           STREAMFLOW =                               STREAMFLOW =                  
     GW BOUNDARY FLOW =            158.84       GW BOUNDARY FLOW =              1.52


                                    OUT                                        OUT
                                    ---                                        ---
   EVAPOTRANSPIRATION =        7975595.46     EVAPOTRANSPIRATION =         116956.45
           STREAMFLOW =        6846611.97             STREAMFLOW =          12977.76
     GW BOUNDARY FLOW =           9188.93       GW BOUNDARY FLOW =             33.06

   INFLOWS - OUTFLOWS =        -160262.72     INFLOWS - OUTFLOWS =        -129965.75
             --------                                   --------

 TOTAL STORAGE CHANGE =        -225761.03         STORAGE CHANGE =        -129184.54
       --------------                             --------------
         LAND SURFACE =            106.65           LAND SURFACE =            -66.98
            SOIL ZONE =        2309756.43              SOIL ZONE =        -107990.56
     UNSATURATED ZONE =       -2982731.02       UNSATURATED ZONE =         -15695.38
       SATURATED ZONE =         447100.46         SATURATED ZONE =          -5431.70

 OVERALL BUDGET ERROR =          65498.32           BUDGET ERROR =           -781.21


  PERCENT DISCREPANCY =              0.44    PERCENT DISCREPANCY =             -0.60



1
 SUMMARY VOLUMETRIC BUDGET FOR GSFLOW 
 DATE: 06 23 1991              CUMULATIVE TIME STEP:      23
 MODFLOW STRESS PERIOD     10     CURRENT TIME STEP:     266     ITERATIONS:       7

 -----------------------------------------------------------------------------------

   CUMULATIVE VOLUMES               L**3   RATES FOR THIS TIME STEP           L**3/T
   ------------------                      ------------------------

                                     IN                                         IN
                                     --                                         --
        PRECIPITATION =        1.4671D+07          PRECIPITATION =                  
           STREAMFLOW =                               STREAMFLOW =                  
     GW BOUNDARY FLOW =            169.62       GW BOUNDARY FLOW =              1.56


                                    OUT                                        OUT
                                    ---                                        ---
   EVAPOTRANSPIRATION =        8517686.18     EVAPOTRANSPIRATION =          38729.62
           STREAMFLOW =        6930208.86             STREAMFLOW =          12150.24
     GW BOUNDARY FLOW =           9419.64       GW BOUNDARY FLOW =             32.93

   INFLOWS - OUTFLOWS =        -786170.26     INFLOWS - OUTFLOWS =         -50911.24
             --------                                   --------

 TOTAL STORAGE CHANGE =        -847656.90         STORAGE CHANGE =         -50649.70
       --------------                             --------------
         LAND SURFACE =             16.57           LAND SURFACE =             -3.65
            SOIL ZONE =        1841993.95              SOIL ZONE =         -31564.79
     UNSATURATED ZONE =       -3092577.76       UNSATURATED ZONE =         -12634.76
       SATURATED ZONE =         402903.34         SATURATED ZONE =          -6446.58

 OVERALL BUDGET ERROR =          61486.65           BUDGET ERROR =           -261.54


  PERCENT DISCREPANCY =              0.40    PERCENT DISCREPANCY =             -0.52



1
 SUMMARY VOLUMETRIC BUDGET FOR GSFLOW 
 DATE: 06 30 1991              CUMULATIVE TIME STEP:      30
 MODFLOW STRESS PERIOD     10     CURRENT TIME STEP:     273     ITERATIONS:       8

 -----------------------------------------------------------------------------------

   CUMULATIVE VOLUMES               L**3   RATES FOR THIS TIME STEP           L**3/T
   ------------------                      ------------------------

                                     IN                                         IN
[...]
   ------------------                      ------------------------

                                     IN                                         IN
                                     --                                         --
        PRECIPITATION =        1.3351D+08          PRECIPITATION =                  
           STREAMFLOW =                               STREAMFLOW =                  
     GW BOUNDARY FLOW =           5642.28       GW BOUNDARY FLOW =              3.56


                                    OUT                                        OUT
                                    ---                                        ---
   EVAPOTRANSPIRATION =        7.3420D+07     EVAPOTRANSPIRATION =          63219.49
           STREAMFLOW =        7.2168D+07             STREAMFLOW =           6690.39
     GW BOUNDARY FLOW =          51116.55       GW BOUNDARY FLOW =             23.98

   INFLOWS - OUTFLOWS =       -1.2125D+07     INFLOWS - OUTFLOWS =         -69930.31
             --------                                   --------

 TOTAL STORAGE CHANGE =       -1.2492D+07         STORAGE CHANGE =         -69899.13
       --------------                             --------------
         LAND SURFACE =         114525.52           LAND SURFACE =          -7766.54
            SOIL ZONE =        1060770.06              SOIL ZONE =         -43705.00
     UNSATURATED ZONE =        -110007.79       UNSATURATED ZONE =         -10471.23
       SATURATED ZONE =       -1.3558D+07         SATURATED ZONE =          -7957.03

 OVERALL BUDGET ERROR =         366652.26           BUDGET ERROR =            -31.18


  PERCENT DISCREPANCY =              0.25    PERCENT DISCREPANCY =             -0.04



1
 SUMMARY VOLUMETRIC BUDGET FOR GSFLOW 
 DATE: 09 10 1995              CUMULATIVE TIME STEP:      10
 MODFLOW STRESS PERIOD     61     CURRENT TIME STEP:    1806     ITERATIONS:       7

 -----------------------------------------------------------------------------------

   CUMULATIVE VOLUMES               L**3   RATES FOR THIS TIME STEP           L**3/T
   ------------------                      ------------------------

                                     IN                                         IN
                                     --                                         --
        PRECIPITATION =        1.3351D+08          PRECIPITATION =                  
           STREAMFLOW =                               STREAMFLOW =                  
     GW BOUNDARY FLOW =           5667.54       GW BOUNDARY FLOW =              3.65


                                    OUT                                        OUT
                                    ---                                        ---
   EVAPOTRANSPIRATION =        7.3774D+07     EVAPOTRANSPIRATION =          47335.76
           STREAMFLOW =        7.2216D+07             STREAMFLOW =           6717.17
     GW BOUNDARY FLOW =          51284.55       GW BOUNDARY FLOW =             23.99

   INFLOWS - OUTFLOWS =       -1.2527D+07     INFLOWS - OUTFLOWS =         -54073.27
             --------                                   --------

 TOTAL STORAGE CHANGE =       -1.2894D+07         STORAGE CHANGE =         -54049.74
       --------------                             --------------
         LAND SURFACE =          75925.35           LAND SURFACE =          -4673.87
            SOIL ZONE =         819432.53              SOIL ZONE =         -31598.76
     UNSATURATED ZONE =        -180211.83       UNSATURATED ZONE =         -10181.76
       SATURATED ZONE =       -1.3609D+07         SATURATED ZONE =          -7596.03

 OVERALL BUDGET ERROR =         366485.72           BUDGET ERROR =            -23.54


  PERCENT DISCREPANCY =              0.25    PERCENT DISCREPANCY =             -0.04



1
 SUMMARY VOLUMETRIC BUDGET FOR GSFLOW 
 DATE: 09 17 1995              CUMULATIVE TIME STEP:      17
 MODFLOW STRESS PERIOD     61     CURRENT TIME STEP:    1813     ITERATIONS:       7

 -----------------------------------------------------------------------------------

   CUMULATIVE VOLUMES               L**3   RATES FOR THIS TIME STEP           L**3/T
   ------------------                      ------------------------

                                     IN                                         IN
                                     --                                         --
        PRECIPITATION =        1.3351D+08          PRECIPITATION =                  
           STREAMFLOW =                               STREAMFLOW =                  
     GW BOUNDARY FLOW =           5693.43       GW BOUNDARY FLOW =              3.74


                                    OUT                                        OUT
                                    ---                                        ---
   EVAPOTRANSPIRATION =        7.4156D+07     EVAPOTRANSPIRATION =          43216.14
           STREAMFLOW =        7.2256D+07             STREAMFLOW =           5872.95
     GW BOUNDARY FLOW =          51451.74       GW BOUNDARY FLOW =             23.91

   INFLOWS - OUTFLOWS =       -1.2949D+07     INFLOWS - OUTFLOWS =         -49109.26
             --------                                   --------

 TOTAL STORAGE CHANGE =       -1.3315D+07         STORAGE CHANGE =         -49085.89
       --------------                             --------------
         LAND SURFACE =          44186.54           LAND SURFACE =          -3043.17
            SOIL ZONE =         573526.29              SOIL ZONE =         -26770.50
     UNSATURATED ZONE =        -255539.47       UNSATURATED ZONE =         -10444.95
       SATURATED ZONE =       -1.3678D+07         SATURATED ZONE =          -8827.94

 OVERALL BUDGET ERROR =         366274.06           BUDGET ERROR =            -23.36


  PERCENT DISCREPANCY =              0.25    PERCENT DISCREPANCY =             -0.05



1
 SUMMARY VOLUMETRIC BUDGET FOR GSFLOW 
 DATE: 09 24 1995              CUMULATIVE TIME STEP:      24
 MODFLOW STRESS PERIOD     61     CURRENT TIME STEP:    1820     ITERATIONS:       7

 -----------------------------------------------------------------------------------

   CUMULATIVE VOLUMES               L**3   RATES FOR THIS TIME STEP           L**3/T
   ------------------                      ------------------------

                                     IN                                         IN
                                     --                                         --
        PRECIPITATION =        1.3351D+08          PRECIPITATION =                  
           STREAMFLOW =                               STREAMFLOW =                  
     GW BOUNDARY FLOW =           5719.91       GW BOUNDARY FLOW =              3.82


                                    OUT                                        OUT
                                    ---                                        ---
   EVAPOTRANSPIRATION =        7.4422D+07     EVAPOTRANSPIRATION =          27536.83
           STREAMFLOW =        7.2297D+07             STREAMFLOW =           6500.31
     GW BOUNDARY FLOW =          51619.06       GW BOUNDARY FLOW =             23.95

   INFLOWS - OUTFLOWS =       -1.3257D+07     INFLOWS - OUTFLOWS =         -34057.26
             --------                                   --------

 TOTAL STORAGE CHANGE =       -1.3623D+07         STORAGE CHANGE =         -34042.04
       --------------                             --------------
         LAND SURFACE =          28055.76           LAND SURFACE =          -1559.79
            SOIL ZONE =         416231.77              SOIL ZONE =         -15682.20
     UNSATURATED ZONE =        -326219.56       UNSATURATED ZONE =          -8999.36
       SATURATED ZONE =       -1.3741D+07         SATURATED ZONE =          -7801.35

 OVERALL BUDGET ERROR =         366123.96           BUDGET ERROR =            -15.23


  PERCENT DISCREPANCY =              0.25    PERCENT DISCREPANCY =             -0.04



1
 SUMMARY VOLUMETRIC BUDGET FOR GSFLOW 
 DATE: 10 01 1995              CUMULATIVE TIME STEP:       1
 MODFLOW STRESS PERIOD     62     CURRENT TIME STEP:    1827     ITERATIONS:       6

 -----------------------------------------------------------------------------------

   CUMULATIVE VOLUMES               L**3   RATES FOR THIS TIME STEP           L**3/T
   ------------------                      ------------------------

                                     IN                                         IN
                                     --                                         --
        PRECIPITATION =        1.3351D+08          PRECIPITATION =                  
           STREAMFLOW =                               STREAMFLOW =                  
     GW BOUNDARY FLOW =           5746.96       GW BOUNDARY FLOW =              3.90


                                    OUT                                        OUT
                                    ---                                        ---
   EVAPOTRANSPIRATION =        7.4538D+07     EVAPOTRANSPIRATION =          16836.74
           STREAMFLOW =        7.2350D+07             STREAMFLOW =           7488.25
     GW BOUNDARY FLOW =          51787.27       GW BOUNDARY FLOW =             24.04

   INFLOWS - OUTFLOWS =       -1.3425D+07     INFLOWS - OUTFLOWS =         -24345.13
             --------                                   --------

 TOTAL STORAGE CHANGE =       -1.3791D+07         STORAGE CHANGE =         -24339.39
       --------------                             --------------
         LAND SURFACE =          22241.70           LAND SURFACE =           -699.89
            SOIL ZONE =         352816.02              SOIL ZONE =          -9282.31
     UNSATURATED ZONE =        -382765.57       UNSATURATED ZONE =          -7929.62
       SATURATED ZONE =       -1.3784D+07         SATURATED ZONE =          -6428.25

 OVERALL BUDGET ERROR =         366075.58           BUDGET ERROR =             -5.74


  PERCENT DISCREPANCY =              0.25    PERCENT DISCREPANCY =             -0.02



1
 SUMMARY VOLUMETRIC BUDGET FOR GSFLOW 
 DATE: 10 08 1995              CUMULATIVE TIME STEP:       8
 MODFLOW STRESS PERIOD     62     CURRENT TIME STEP:    1834     ITERATIONS:       6

 -----------------------------------------------------------------------------------

   CUMULATIVE VOLUMES               L**3   RATES FOR THIS TIME STEP           L**3/T
   ------------------                      ------------------------

                                     IN                                         IN
                                     --                                         --
        PRECIPITATION =        1.3351D+08          PRECIPITATION =                  
           STREAMFLOW =                               STREAMFLOW =                  
     GW BOUNDARY FLOW =           5774.55       GW BOUNDARY FLOW =              3.97


                                    OUT                                        OUT
                                    ---                                        ---
   EVAPOTRANSPIRATION =        7.4662D+07     EVAPOTRANSPIRATION =          15534.78
           STREAMFLOW =        7.2401D+07             STREAMFLOW =           7390.55
     GW BOUNDARY FLOW =          51955.43       GW BOUNDARY FLOW =             24.04

   INFLOWS - OUTFLOWS =       -1.3600D+07     INFLOWS - OUTFLOWS =         -22945.40
             --------                                   --------

 TOTAL STORAGE CHANGE =       -1.3966D+07         STORAGE CHANGE =         -22939.01
       --------------                             --------------
         LAND SURFACE =          18179.46           LAND SURFACE =           -628.45
            SOIL ZONE =         284940.10              SOIL ZONE =          -8227.40
     UNSATURATED ZONE =        -436801.80       UNSATURATED ZONE =          -7330.73
       SATURATED ZONE =       -1.3833D+07         SATURATED ZONE =          -6753.10

 OVERALL BUDGET ERROR =         366016.42           BUDGET ERROR =             -6.39


  PERCENT DISCREPANCY =              0.25    PERCENT DISCREPANCY =             -0.03



1
 SUMMARY VOLUMETRIC BUDGET FOR GSFLOW 
 DATE: 10 15 1995              CUMULATIVE TIME STEP:      15
 MODFLOW STRESS PERIOD     62     CURRENT TIME STEP:    1841     ITERATIONS:       5

 -----------------------------------------------------------------------------------

   CUMULATIVE VOLUMES               L**3   RATES FOR THIS TIME STEP           L**3/T
   ------------------                      ------------------------

                                     IN                                         IN
                                     --                                         --
        PRECIPITATION =        1.3351D+08          PRECIPITATION =                  
           STREAMFLOW =                               STREAMFLOW =                  
     GW BOUNDARY FLOW =           5802.63       GW BOUNDARY FLOW =              4.04


                                    OUT                                        OUT
                                    ---                                        ---
   EVAPOTRANSPIRATION =        7.4778D+07     EVAPOTRANSPIRATION =          18136.65
           STREAMFLOW =        7.2451D+07             STREAMFLOW =           6977.33
     GW BOUNDARY FLOW =          52123.55       GW BOUNDARY FLOW =             24.00

   INFLOWS - OUTFLOWS =       -1.3767D+07     INFLOWS - OUTFLOWS =         -25133.95
             --------                                   --------

 TOTAL STORAGE CHANGE =       -1.4133D+07         STORAGE CHANGE =         -25125.58
       --------------                             --------------
         LAND SURFACE =          14037.99           LAND SURFACE =           -696.58
            SOIL ZONE =         223788.87              SOIL ZONE =          -9346.24
     UNSATURATED ZONE =        -485916.10       UNSATURATED ZONE =          -6930.73
       SATURATED ZONE =       -1.3885D+07         SATURATED ZONE =          -8152.69

 OVERALL BUDGET ERROR =         365950.90           BUDGET ERROR =             -8.36


  PERCENT DISCREPANCY =              0.25    PERCENT DISCREPANCY =             -0.03



1
 SUMMARY VOLUMETRIC BUDGET FOR GSFLOW 
 DATE: 10 22 1995              CUMULATIVE TIME STEP:      22
 MODFLOW STRESS PERIOD     62     CURRENT TIME STEP:    1848     ITERATIONS:      16

 -----------------------------------------------------------------------------------

   CUMULATIVE VOLUMES               L**3   RATES FOR THIS TIME STEP           L**3/T
   ------------------                      ------------------------

                                     IN                                         IN
                                     --                                         --
        PRECIPITATION =        1.3351D+08          PRECIPITATION =                  
           STREAMFLOW =                               STREAMFLOW =                  
     GW BOUNDARY FLOW =           5831.17       GW BOUNDARY FLOW =              4.10


                                    OUT                                        OUT
                                    ---                                        ---
   EVAPOTRANSPIRATION =        7.4882D+07     EVAPOTRANSPIRATION =           4719.01
           STREAMFLOW =        7.2501D+07             STREAMFLOW =           8139.56
     GW BOUNDARY FLOW =          52291.70       GW BOUNDARY FLOW =             24.11

   INFLOWS - OUTFLOWS =       -1.3921D+07     INFLOWS - OUTFLOWS =         -12878.59
             --------                                   --------

 TOTAL STORAGE CHANGE =       -1.4287D+07         STORAGE CHANGE =         -12878.12
       --------------                             --------------
         LAND SURFACE =          10452.80           LAND SURFACE =             -6.45
            SOIL ZONE =         172294.01              SOIL ZONE =          -2083.45
     UNSATURATED ZONE =        -531491.31       UNSATURATED ZONE =          -6048.87
       SATURATED ZONE =       -1.3939D+07         SATURATED ZONE =          -4740.03

 OVERALL BUDGET ERROR =         365892.53           BUDGET ERROR =             -0.47


  PERCENT DISCREPANCY =              0.25    PERCENT DISCREPANCY =             -0.00



1
 SUMMARY VOLUMETRIC BUDGET FOR GSFLOW 
 DATE: 10 29 1995              CUMULATIVE TIME STEP:      29
 MODFLOW STRESS PERIOD     62     CURRENT TIME STEP:    1855     ITERATIONS:       6

 -----------------------------------------------------------------------------------

   CUMULATIVE VOLUMES               L**3   RATES FOR THIS TIME STEP           L**3/T
   ------------------                      ------------------------

                                     IN                                         IN
                                     --                                         --
        PRECIPITATION =        1.3351D+08          PRECIPITATION =                  
           STREAMFLOW =                               STREAMFLOW =                  
     GW BOUNDARY FLOW =           5860.12       GW BOUNDARY FLOW =              4.16


                                    OUT                                        OUT
                                    ---                                        ---
   EVAPOTRANSPIRATION =        7.4947D+07     EVAPOTRANSPIRATION =          11362.13
           STREAMFLOW =        7.2555D+07             STREAMFLOW =           7477.13
     GW BOUNDARY FLOW =          52460.26       GW BOUNDARY FLOW =             24.06

   INFLOWS - OUTFLOWS =       -1.4041D+07     INFLOWS - OUTFLOWS =         -18859.15
             --------                                   --------

 TOTAL STORAGE CHANGE =       -1.4407D+07         STORAGE CHANGE =         -18853.45
       --------------                             --------------
         LAND SURFACE =           9254.99           LAND SURFACE =           -359.13
            SOIL ZONE =         141967.73              SOIL ZONE =          -5082.52
     UNSATURATED ZONE =        -574695.54       UNSATURATED ZONE =          -6165.59
       SATURATED ZONE =       -1.3984D+07         SATURATED ZONE =          -7246.88

 OVERALL BUDGET ERROR =         365861.42           BUDGET ERROR =             -5.70


  PERCENT DISCREPANCY =              0.25    PERCENT DISCREPANCY =             -0.03



 Number of time steps:   1857;  Number of non-convergence:   0
 MF iterations:         12012;  SZ iterations:           11946
 Average MF iterations:  6.47;  Average SZ iterations:    6.43
 Maximum MF iterations:    79;  Maximum SZ iterations:      50

mxsziter reached: 4

MF iteration distribution:      0    0   25  198  319  470  478  252   79   18
                                3    3    3    1    1    1    1    0    0    0
                                0    0    0    0    0    0    0    0    0    0
                                0    0    0    0    0    0    0    0    0    0
                                1    0    0    0    0    0    0    0    0    0
                                0    0    0    0    0    0    1    0    1    0
                                0    0    0    0    0    0    0    0    0    0
                                1    0    0    0    0    0    0    0    1    0

SZ computation distribution:    0    0   25  198  319  470  478  252   79   18
                                3    3    3    1    1    1    1    0    0    0
                                0    0    0    0    0    0    0    0    0    0
                                0    0    0    0    0    0    0    0    0    0
                                1    0    0    0    0    0    0    0    0    4
                                0    0    0    0    0    0    0    0    0    0
                                0    0    0    0    0    0    0    0    0    0
                                0    0    0    0    0    0    0    0    0    0

