1
 SUMMARY VOLUMETRIC BUDGET FOR GSFLOW 
 DATE: 10 07 1990              CUMULATIVE TIME STEP:       7
 MODFLOW STRESS PERIOD      2     CURRENT TIME STEP:       7     ITERATIONS:       7

 -----------------------------------------------------------------------------------

   CUMULATIVE VOLUMES               L**3   RATES FOR THIS TIME STEP           L**3/T
   ------------------                      ------------------------

                                     IN                                         IN
                                     --                                         --
        PRECIPITATION =                            PRECIPITATION =                  
           STREAMFLOW =                               STREAMFLOW =                  
     GW BOUNDARY FLOW =                         GW BOUNDARY FLOW =                  


                                    OUT                                        OUT
                                    ---                                        ---
   EVAPOTRANSPIRATION =         385031.63     EVAPOTRANSPIRATION =          11801.34
           STREAMFLOW =          45661.61             STREAMFLOW =           8128.74
     GW BOUNDARY FLOW =            252.78       GW BOUNDARY FLOW =             36.30

   INFLOWS - OUTFLOWS =        -430946.01     INFLOWS - OUTFLOWS =         -19966.38
             --------                                   --------

 TOTAL STORAGE CHANGE =        -429355.10         STORAGE CHANGE =         -19938.35
       --------------                             --------------
         LAND SURFACE =                             LAND SURFACE =                  
            SOIL ZONE =         -33384.03              SOIL ZONE =           -943.80
     UNSATURATED ZONE =        -502794.45       UNSATURATED ZONE =         -33592.86
       SATURATED ZONE =         106823.38         SATURATED ZONE =          14598.31

 OVERALL BUDGET ERROR =          -1590.91           BUDGET ERROR =            -28.04


  PERCENT DISCREPANCY =             -0.37    PERCENT DISCREPANCY =             -0.14



1
 SUMMARY VOLUMETRIC BUDGET FOR GSFLOW 
 DATE: 10 14 1990              CUMULATIVE TIME STEP:      14
 MODFLOW STRESS PERIOD      2     CURRENT TIME STEP:      14     ITERATIONS:       6

 -----------------------------------------------------------------------------------

   CUMULATIVE VOLUMES               L**3   RATES FOR THIS TIME STEP           L**3/T
   ------------------                      ------------------------

                                     IN                                         IN
                                     --                                         --
        PRECIPITATION =                            PRECIPITATION =                  
           STREAMFLOW =                               STREAMFLOW =                  
     GW BOUNDARY FLOW =                         GW BOUNDARY FLOW =                  


                                    OUT                                        OUT
                                    ---                                        ---
   EVAPOTRANSPIRATION =         665235.67     EVAPOTRANSPIRATION =          42298.13
           STREAMFLOW =         100376.39             STREAMFLOW =           7413.80
     GW BOUNDARY FLOW =            506.61       GW BOUNDARY FLOW =             36.24

   INFLOWS - OUTFLOWS =        -766118.67     INFLOWS - OUTFLOWS =         -49748.17
             --------                                   --------

 TOTAL STORAGE CHANGE =        -764154.83         STORAGE CHANGE =         -49710.99
       --------------                             --------------
         LAND SURFACE =                             LAND SURFACE =                  
            SOIL ZONE =         -58194.84              SOIL ZONE =          -4382.18
     UNSATURATED ZONE =        -877795.92       UNSATURATED ZONE =         -52080.87
       SATURATED ZONE =         171835.92         SATURATED ZONE =           6752.05

 OVERALL BUDGET ERROR =          -1963.85           BUDGET ERROR =            -37.18


  PERCENT DISCREPANCY =             -0.26    PERCENT DISCREPANCY =             -0.07



1
 SUMMARY VOLUMETRIC BUDGET FOR GSFLOW 
 DATE: 10 21 1990              CUMULATIVE TIME STEP:      21
 MODFLOW STRESS PERIOD      2     CURRENT TIME STEP:      21     ITERATIONS:       6

 -----------------------------------------------------------------------------------

   CUMULATIVE VOLUMES               L**3   RATES FOR THIS TIME STEP           L**3/T
   ------------------                      ------------------------

                                     IN                                         IN
                                     --                                         --
        PRECIPITATION =         188432.87          PRECIPITATION =                  
           STREAMFLOW =                               STREAMFLOW =                  
     GW BOUNDARY FLOW =                         GW BOUNDARY FLOW =                  


                                    OUT                                        OUT
                                    ---                                        ---
   EVAPOTRANSPIRATION =         815639.35     EVAPOTRANSPIRATION =          41834.63
           STREAMFLOW =         163138.74             STREAMFLOW =          10141.42
     GW BOUNDARY FLOW =            760.80       GW BOUNDARY FLOW =             36.37

   INFLOWS - OUTFLOWS =        -791106.02     INFLOWS - OUTFLOWS =         -52012.42
             --------                                   --------

 TOTAL STORAGE CHANGE =        -790349.22         STORAGE CHANGE =         -52020.63
       --------------                             --------------
         LAND SURFACE =          18885.57           LAND SURFACE =         -43558.49
            SOIL ZONE =          47305.10              SOIL ZONE =           2013.87
     UNSATURATED ZONE =       -1091630.01       UNSATURATED ZONE =         -21396.92
       SATURATED ZONE =         235090.12         SATURATED ZONE =          10920.90

 OVERALL BUDGET ERROR =           -756.80           BUDGET ERROR =              8.20


  PERCENT DISCREPANCY =             -0.08    PERCENT DISCREPANCY =              0.02



1
 SUMMARY VOLUMETRIC BUDGET FOR GSFLOW 
 DATE: 10 28 1990              CUMULATIVE TIME STEP:      28
 MODFLOW STRESS PERIOD      2     CURRENT TIME STEP:      28     ITERATIONS:       6

 -----------------------------------------------------------------------------------

   CUMULATIVE VOLUMES               L**3   RATES FOR THIS TIME STEP           L**3/T
   ------------------                      ------------------------

                                     IN                                         IN
                                     --                                         --
        PRECIPITATION =         188432.87          PRECIPITATION =                  
           STREAMFLOW =                               STREAMFLOW =                  
     GW BOUNDARY FLOW =                         GW BOUNDARY FLOW =                  


                                    OUT                                        OUT
                                    ---                                        ---
   EVAPOTRANSPIRATION =         944459.90     EVAPOTRANSPIRATION =          11826.69
           STREAMFLOW =         224511.87             STREAMFLOW =           8913.88
     GW BOUNDARY FLOW =           1013.98       GW BOUNDARY FLOW =             36.12

   INFLOWS - OUTFLOWS =        -981552.88     INFLOWS - OUTFLOWS =         -20776.70
             --------                                   --------

 TOTAL STORAGE CHANGE =        -980732.62         STORAGE CHANGE =         -20766.57
       --------------                             --------------
         LAND SURFACE =                             LAND SURFACE =                  
            SOIL ZONE =          18260.77              SOIL ZONE =          -3430.25
     UNSATURATED ZONE =       -1275180.06       UNSATURATED ZONE =         -23225.97
       SATURATED ZONE =         276186.66         SATURATED ZONE =           5889.65

 OVERALL BUDGET ERROR =           -820.26           BUDGET ERROR =            -10.13


  PERCENT DISCREPANCY =             -0.07    PERCENT DISCREPANCY =             -0.05



1
 SUMMARY VOLUMETRIC BUDGET FOR GSFLOW 
 DATE: 11 04 1990              CUMULATIVE TIME STEP:       4
 MODFLOW STRESS PERIOD      3     CURRENT TIME STEP:      35     ITERATIONS:       6

 -----------------------------------------------------------------------------------

   CUMULATIVE VOLUMES               L**3   RATES FOR THIS TIME STEP           L**3/T
   ------------------                      ------------------------

                                     IN                                         IN
                                     --                                         --
        PRECIPITATION =         703113.06          PRECIPITATION =                  
           STREAMFLOW =                               STREAMFLOW =                  
     GW BOUNDARY FLOW =                         GW BOUNDARY FLOW =                  


                                    OUT                                        OUT
                                    ---                                        ---
   EVAPOTRANSPIRATION =        1005153.94     EVAPOTRANSPIRATION =          26357.54
           STREAMFLOW =         295044.81             STREAMFLOW =          10632.28
     GW BOUNDARY FLOW =           1267.03       GW BOUNDARY FLOW =             36.14

   INFLOWS - OUTFLOWS =        -598352.72     INFLOWS - OUTFLOWS =         -37025.96
             --------                                   --------

 TOTAL STORAGE CHANGE =        -602713.52         STORAGE CHANGE =         -38317.39
       --------------                             --------------
         LAND SURFACE =         132159.65           LAND SURFACE =        -160480.33
            SOIL ZONE =         349909.91              SOIL ZONE =         132879.93
     UNSATURATED ZONE =       -1420693.01       UNSATURATED ZONE =         -20070.11
       SATURATED ZONE =         335909.92         SATURATED ZONE =           9353.12

 OVERALL BUDGET ERROR =           4360.80           BUDGET ERROR =           1291.43

  ***WARNING, FLUX RATES OFF > 3%

  PERCENT DISCREPANCY =              0.33    PERCENT DISCREPANCY =              3.43



1
 SUMMARY VOLUMETRIC BUDGET FOR GSFLOW 
 DATE: 11 11 1990              CUMULATIVE TIME STEP:      11
 MODFLOW STRESS PERIOD      3     CURRENT TIME STEP:      42     ITERATIONS:       6

 -----------------------------------------------------------------------------------

   CUMULATIVE VOLUMES               L**3   RATES FOR THIS TIME STEP           L**3/T
   ------------------                      ------------------------

                                     IN                                         IN
                                     --                                         --
        PRECIPITATION =         703113.06          PRECIPITATION =                  
           STREAMFLOW =                               STREAMFLOW =                  
     GW BOUNDARY FLOW =                         GW BOUNDARY FLOW =                  


                                    OUT                                        OUT
                                    ---                                        ---
   EVAPOTRANSPIRATION =        1082561.66     EVAPOTRANSPIRATION =          12156.63
           STREAMFLOW =         366075.64             STREAMFLOW =           9638.74
     GW BOUNDARY FLOW =           1519.13       GW BOUNDARY FLOW =             35.92

   INFLOWS - OUTFLOWS =        -747043.37     INFLOWS - OUTFLOWS =         -21831.29
             --------                                   --------

 TOTAL STORAGE CHANGE =        -751570.51         STORAGE CHANGE =         -21827.73
       --------------                             --------------
         LAND SURFACE =            595.09           LAND SURFACE =          -1416.54
            SOIL ZONE =         422044.01              SOIL ZONE =          -5448.89
     UNSATURATED ZONE =       -1559863.80       UNSATURATED ZONE =         -19858.13
       SATURATED ZONE =         385654.16         SATURATED ZONE =           4895.83

 OVERALL BUDGET ERROR =           4527.14           BUDGET ERROR =             -3.56


  PERCENT DISCREPANCY =              0.31    PERCENT DISCREPANCY =             -0.02



1
 SUMMARY VOLUMETRIC BUDGET FOR GSFLOW 
 DATE: 11 18 1990              CUMULATIVE TIME STEP:      18
 MODFLOW STRESS PERIOD      3     CURRENT TIME STEP:      49     ITERATIONS:       6

 -----------------------------------------------------------------------------------

   CUMULATIVE VOLUMES               L**3   RATES FOR THIS TIME STEP           L**3/T
   ------------------                      ------------------------

                                     IN                                         IN
                                     --                                         --
        PRECIPITATION =         747883.35          PRECIPITATION =                  
           STREAMFLOW =                               STREAMFLOW =                  
     GW BOUNDARY FLOW =                         GW BOUNDARY FLOW =                  


                                    OUT                                        OUT
                                    ---                                        ---
   EVAPOTRANSPIRATION =        1155124.24     EVAPOTRANSPIRATION =           5077.02
           STREAMFLOW =         437740.51             STREAMFLOW =          10662.65
     GW BOUNDARY FLOW =           1770.44       GW BOUNDARY FLOW =             35.88

   INFLOWS - OUTFLOWS =        -846751.84     INFLOWS - OUTFLOWS =         -15775.56
             --------                                   --------

 TOTAL STORAGE CHANGE =        -851302.06         STORAGE CHANGE =         -15784.61
       --------------                             --------------
         LAND SURFACE =           7868.08           LAND SURFACE =          -3691.47
            SOIL ZONE =         404074.18              SOIL ZONE =           -743.65
     UNSATURATED ZONE =       -1693039.85       UNSATURATED ZONE =         -18611.22
       SATURATED ZONE =         429795.48         SATURATED ZONE =           7261.72

 OVERALL BUDGET ERROR =           4550.22           BUDGET ERROR =              9.06


  PERCENT DISCREPANCY =              0.28    PERCENT DISCREPANCY =              0.06



1
 SUMMARY VOLUMETRIC BUDGET FOR GSFLOW 
 DATE: 11 25 1990              CUMULATIVE TIME STEP:      25
 MODFLOW STRESS PERIOD      3     CURRENT TIME STEP:      56     ITERATIONS:       6

 -----------------------------------------------------------------------------------

   CUMULATIVE VOLUMES               L**3   RATES FOR THIS TIME STEP           L**3/T
   ------------------                      ------------------------

                                     IN                                         IN
                                     --                                         --
        PRECIPITATION =        1009043.38          PRECIPITATION =         186542.88
           STREAMFLOW =                               STREAMFLOW =                  
     GW BOUNDARY FLOW =                         GW BOUNDARY FLOW =                  


                                    OUT                                        OUT
                                    ---                                        ---
   EVAPOTRANSPIRATION =        1215718.78     EVAPOTRANSPIRATION =           3754.37
           STREAMFLOW =         513691.56             STREAMFLOW =          10868.34
     GW BOUNDARY FLOW =           2021.39       GW BOUNDARY FLOW =             35.79

   INFLOWS - OUTFLOWS =        -722388.35     INFLOWS - OUTFLOWS =         171884.37
             --------                                   --------

 TOTAL STORAGE CHANGE =        -729156.71         STORAGE CHANGE =         169959.64
       --------------                             --------------
         LAND SURFACE =          86180.68           LAND SURFACE =          69567.13
            SOIL ZONE =         526114.67              SOIL ZONE =         112016.17
     UNSATURATED ZONE =       -1820643.87       UNSATURATED ZONE =         -17904.14
       SATURATED ZONE =         479191.75         SATURATED ZONE =           6280.48

 OVERALL BUDGET ERROR =           6768.35           BUDGET ERROR =           1924.73


  PERCENT DISCREPANCY =              0.39    PERCENT DISCREPANCY =              1.04



1
 SUMMARY VOLUMETRIC BUDGET FOR GSFLOW 
 DATE: 12 02 1990              CUMULATIVE TIME STEP:       2
 MODFLOW STRESS PERIOD      4     CURRENT TIME STEP:      63     ITERATIONS:       6

 -----------------------------------------------------------------------------------

   CUMULATIVE VOLUMES               L**3   RATES FOR THIS TIME STEP           L**3/T
   ------------------                      ------------------------

                                     IN                                         IN
                                     --                                         --
        PRECIPITATION =        1449284.55          PRECIPITATION =                  
           STREAMFLOW =                               STREAMFLOW =                  
     GW BOUNDARY FLOW =                         GW BOUNDARY FLOW =                  


                                    OUT                                        OUT
                                    ---                                        ---
   EVAPOTRANSPIRATION =        1222235.06     EVAPOTRANSPIRATION =            235.96
           STREAMFLOW =         590857.50             STREAMFLOW =          11064.81
     GW BOUNDARY FLOW =           2271.88       GW BOUNDARY FLOW =             35.77

   INFLOWS - OUTFLOWS =        -366079.88     INFLOWS - OUTFLOWS =         -11336.54
             --------                                   --------

 TOTAL STORAGE CHANGE =        -373983.76         STORAGE CHANGE =         -11345.58
       --------------                             --------------
         LAND SURFACE =         486845.62           LAND SURFACE =           -339.04
            SOIL ZONE =         558396.25              SOIL ZONE =            150.76
     UNSATURATED ZONE =       -1943486.49       UNSATURATED ZONE =         -17255.00
       SATURATED ZONE =         524260.77         SATURATED ZONE =           6097.70

 OVERALL BUDGET ERROR =           7903.88           BUDGET ERROR =              9.04


  PERCENT DISCREPANCY =              0.43    PERCENT DISCREPANCY =              0.08



1
 SUMMARY VOLUMETRIC BUDGET FOR GSFLOW 
 DATE: 12 09 1990              CUMULATIVE TIME STEP:       9
 MODFLOW STRESS PERIOD      4     CURRENT TIME STEP:      70     ITERATIONS:       6

 -----------------------------------------------------------------------------------

   CUMULATIVE VOLUMES               L**3   RATES FOR THIS TIME STEP           L**3/T
   ------------------                      ------------------------

                                     IN                                         IN
                                     --                                         --
        PRECIPITATION =        1449284.55          PRECIPITATION =                  
           STREAMFLOW =                               STREAMFLOW =                  
     GW BOUNDARY FLOW =                         GW BOUNDARY FLOW =                  


                                    OUT                                        OUT
                                    ---                                        ---
   EVAPOTRANSPIRATION =        1298303.13     EVAPOTRANSPIRATION =          13893.19
           STREAMFLOW =         668525.51             STREAMFLOW =          10910.54
     GW BOUNDARY FLOW =           2521.84       GW BOUNDARY FLOW =             35.65

   INFLOWS - OUTFLOWS =        -520065.93     INFLOWS - OUTFLOWS =         -24839.38
             --------                                   --------

 TOTAL STORAGE CHANGE =        -532551.96         STORAGE CHANGE =         -24961.49
       --------------                             --------------
         LAND SURFACE =          67215.41           LAND SURFACE =         -45889.70
            SOIL ZONE =         900826.06              SOIL ZONE =          33513.32
     UNSATURATED ZONE =       -2061344.88       UNSATURATED ZONE =         -16498.31
       SATURATED ZONE =         560751.33         SATURATED ZONE =           3913.20

 OVERALL BUDGET ERROR =          12486.03           BUDGET ERROR =            122.11


  PERCENT DISCREPANCY =              0.63    PERCENT DISCREPANCY =              0.49



1
 SUMMARY VOLUMETRIC BUDGET FOR GSFLOW 
 DATE: 12 16 1990              CUMULATIVE TIME STEP:      16
 MODFLOW STRESS PERIOD      4     CURRENT TIME STEP:      77     ITERATIONS:       5

 -----------------------------------------------------------------------------------

   CUMULATIVE VOLUMES               L**3   RATES FOR THIS TIME STEP           L**3/T
   ------------------                      ------------------------

                                     IN                                         IN
                                     --                                         --
        PRECIPITATION =        1804962.84          PRECIPITATION =                  
           STREAMFLOW =                               STREAMFLOW =                  
     GW BOUNDARY FLOW =                         GW BOUNDARY FLOW =                  


                                    OUT                                        OUT
                                    ---                                        ---
   EVAPOTRANSPIRATION =        1326631.59     EVAPOTRANSPIRATION =                  
           STREAMFLOW =         748150.10             STREAMFLOW =          11506.84
     GW BOUNDARY FLOW =           2771.25       GW BOUNDARY FLOW =             35.61

   INFLOWS - OUTFLOWS =        -272590.10     INFLOWS - OUTFLOWS =         -11542.45
             --------                                   --------

 TOTAL STORAGE CHANGE =        -287423.59         STORAGE CHANGE =         -11553.57
       --------------                             --------------
         LAND SURFACE =         252566.26           LAND SURFACE =                  
            SOIL ZONE =        1043228.57              SOIL ZONE =            -18.93
     UNSATURATED ZONE =       -2174685.93       UNSATURATED ZONE =         -15929.81
       SATURATED ZONE =         591467.36         SATURATED ZONE =           4395.17

 OVERALL BUDGET ERROR =          14833.49           BUDGET ERROR =             11.12


  PERCENT DISCREPANCY =              0.71    PERCENT DISCREPANCY =              0.10



1
 SUMMARY VOLUMETRIC BUDGET FOR GSFLOW 
 DATE: 12 23 1990              CUMULATIVE TIME STEP:      23
 MODFLOW STRESS PERIOD      4     CURRENT TIME STEP:      84     ITERATIONS:       6

 -----------------------------------------------------------------------------------

   CUMULATIVE VOLUMES               L**3   RATES FOR THIS TIME STEP           L**3/T
   ------------------                      ------------------------

                                     IN                                         IN
                                     --                                         --
        PRECIPITATION =        2276236.55          PRECIPITATION =                  
           STREAMFLOW =                               STREAMFLOW =                  
     GW BOUNDARY FLOW =              0.08       GW BOUNDARY FLOW =              0.04


                                    OUT                                        OUT
                                    ---                                        ---
   EVAPOTRANSPIRATION =        1327693.25     EVAPOTRANSPIRATION =                  
           STREAMFLOW =         828886.87             STREAMFLOW =          11557.93
     GW BOUNDARY FLOW =           3020.28       GW BOUNDARY FLOW =             35.57

   INFLOWS - OUTFLOWS =         116636.23     INFLOWS - OUTFLOWS =         -11593.47
             --------                                   --------

 TOTAL STORAGE CHANGE =         101734.34         STORAGE CHANGE =         -11602.92
       --------------                             --------------
         LAND SURFACE =         722784.34           LAND SURFACE =                  
            SOIL ZONE =        1043422.31              SOIL ZONE =             55.61
     UNSATURATED ZONE =       -2283883.67       UNSATURATED ZONE =         -15354.99
       SATURATED ZONE =         619411.18         SATURATED ZONE =           3696.46

 OVERALL BUDGET ERROR =          14901.89           BUDGET ERROR =              9.45


  PERCENT DISCREPANCY =              0.66    PERCENT DISCREPANCY =              0.08



1
 SUMMARY VOLUMETRIC BUDGET FOR GSFLOW 
 DATE: 12 30 1990              CUMULATIVE TIME STEP:      30
 MODFLOW STRESS PERIOD      4     CURRENT TIME STEP:      91     ITERATIONS:       5

 -----------------------------------------------------------------------------------

   CUMULATIVE VOLUMES               L**3   RATES FOR THIS TIME STEP           L**3/T
   ------------------                      ------------------------

                                     IN                                         IN
                                     --                                         --
        PRECIPITATION =        2276236.55          PRECIPITATION =                  
           STREAMFLOW =                               STREAMFLOW =                  
     GW BOUNDARY FLOW =              0.77       GW BOUNDARY FLOW =              0.14


                                    OUT                                        OUT
                                    ---                                        ---
   EVAPOTRANSPIRATION =        1328263.21     EVAPOTRANSPIRATION =                  
           STREAMFLOW =         910052.10             STREAMFLOW =          11625.39
     GW BOUNDARY FLOW =           3269.39       GW BOUNDARY FLOW =             35.60

   INFLOWS - OUTFLOWS =          34652.62     INFLOWS - OUTFLOWS =         -11660.85
             --------                                   --------

 TOTAL STORAGE CHANGE =          19693.28         STORAGE CHANGE =         -11668.41
       --------------                             --------------
         LAND SURFACE =         722216.94           LAND SURFACE =                  
            SOIL ZONE =        1044001.60              SOIL ZONE =            100.86
     UNSATURATED ZONE =       -2389168.41       UNSATURATED ZONE =         -14806.02
       SATURATED ZONE =         642642.92         SATURATED ZONE =           3036.74

 OVERALL BUDGET ERROR =          14959.34           BUDGET ERROR =              7.56


  PERCENT DISCREPANCY =              0.66    PERCENT DISCREPANCY =              0.06



1
 SUMMARY VOLUMETRIC BUDGET FOR GSFLOW 
 DATE: 01 06 1991              CUMULATIVE TIME STEP:       6
 MODFLOW STRESS PERIOD      5     CURRENT TIME STEP:      98     ITERATIONS:       5

 -----------------------------------------------------------------------------------

   CUMULATIVE VOLUMES               L**3   RATES FOR THIS TIME STEP           L**3/T
   ------------------                      ------------------------

                                     IN                                         IN
                                     --                                         --
        PRECIPITATION =        2276236.55          PRECIPITATION =                  
           STREAMFLOW =                               STREAMFLOW =                  
     GW BOUNDARY FLOW =              2.09       GW BOUNDARY FLOW =              0.22


                                    OUT                                        OUT
                                    ---                                        ---
   EVAPOTRANSPIRATION =        1355338.75     EVAPOTRANSPIRATION =           3189.43
           STREAMFLOW =         991884.31             STREAMFLOW =          11731.61
     GW BOUNDARY FLOW =           3519.27       GW BOUNDARY FLOW =             35.75

   INFLOWS - OUTFLOWS =         -74503.69     INFLOWS - OUTFLOWS =         -14956.57
             --------                                   --------

 TOTAL STORAGE CHANGE =         -92100.29         STORAGE CHANGE =         -15094.46
       --------------                             --------------
         LAND SURFACE =         592099.77           LAND SURFACE =          -8106.31
            SOIL ZONE =        1145220.18              SOIL ZONE =           4886.72
     UNSATURATED ZONE =       -2490515.44       UNSATURATED ZONE =         -14245.77
       SATURATED ZONE =         661094.91         SATURATED ZONE =           2370.89

 OVERALL BUDGET ERROR =          17596.60           BUDGET ERROR =            137.89


  PERCENT DISCREPANCY =              0.75    PERCENT DISCREPANCY =              0.92



1
 SUMMARY VOLUMETRIC BUDGET FOR GSFLOW 
 DATE: 01 13 1991              CUMULATIVE TIME STEP:      13
 MODFLOW STRESS PERIOD      5     CURRENT TIME STEP:     105     ITERATIONS:       6

 -----------------------------------------------------------------------------------

   CUMULATIVE VOLUMES               L**3   RATES FOR THIS TIME STEP           L**3/T
   ------------------                      ------------------------

                                     IN                                         IN
                                     --                                         --
        PRECIPITATION =        2596386.94          PRECIPITATION =          10327.43
           STREAMFLOW =                               STREAMFLOW =                  
     GW BOUNDARY FLOW =              4.01       GW BOUNDARY FLOW =              0.31


                                    OUT                                        OUT
                                    ---                                        ---
   EVAPOTRANSPIRATION =        1422269.78     EVAPOTRANSPIRATION =          18640.51
           STREAMFLOW =        1074140.81             STREAMFLOW =          11728.22
     GW BOUNDARY FLOW =           3769.50       GW BOUNDARY FLOW =             35.73

   INFLOWS - OUTFLOWS =          96210.87     INFLOWS - OUTFLOWS =         -20076.72
             --------                                   --------

 TOTAL STORAGE CHANGE =          73474.83         STORAGE CHANGE =         -21345.82
       --------------                             --------------
         LAND SURFACE =         529885.07           LAND SURFACE =        -135264.71
            SOIL ZONE =        1457483.56              SOIL ZONE =         126487.52
     UNSATURATED ZONE =       -2587800.79       UNSATURATED ZONE =         -13692.11
       SATURATED ZONE =         673906.66         SATURATED ZONE =           1123.47

 OVERALL BUDGET ERROR =          22736.05           BUDGET ERROR =           1269.10

  ***WARNING, FLUX RATES OFF > 3%

  PERCENT DISCREPANCY =              0.88    PERCENT DISCREPANCY =              4.09



1
 SUMMARY VOLUMETRIC BUDGET FOR GSFLOW 
 DATE: 01 20 1991              CUMULATIVE TIME STEP:      20
 MODFLOW STRESS PERIOD      5     CURRENT TIME STEP:     112     ITERATIONS:       5

 -----------------------------------------------------------------------------------

   CUMULATIVE VOLUMES               L**3   RATES FOR THIS TIME STEP           L**3/T
   ------------------                      ------------------------

                                     IN                                         IN
                                     --                                         --
        PRECIPITATION =        2596386.94          PRECIPITATION =                  
           STREAMFLOW =                               STREAMFLOW =                  
     GW BOUNDARY FLOW =              6.54       GW BOUNDARY FLOW =              0.40


                                    OUT                                        OUT
                                    ---                                        ---
   EVAPOTRANSPIRATION =        1499570.88     EVAPOTRANSPIRATION =           2459.80
           STREAMFLOW =        1157228.08             STREAMFLOW =          11891.37
     GW BOUNDARY FLOW =           4019.75       GW BOUNDARY FLOW =             35.75

   INFLOWS - OUTFLOWS =         -64425.22     INFLOWS - OUTFLOWS =         -14386.52
             --------                                   --------

 TOTAL STORAGE CHANGE =         -88176.57         STORAGE CHANGE =         -14390.35
       --------------                             --------------
         LAND SURFACE =         356897.60           LAND SURFACE =           -433.81
            SOIL ZONE =        1553071.60              SOIL ZONE =          -1962.90
     UNSATURATED ZONE =       -2681218.31       UNSATURATED ZONE =         -13122.96
       SATURATED ZONE =         683072.15         SATURATED ZONE =           1129.30

 OVERALL BUDGET ERROR =          23751.35           BUDGET ERROR =              3.83


  PERCENT DISCREPANCY =              0.89    PERCENT DISCREPANCY =              0.03



1
 SUMMARY VOLUMETRIC BUDGET FOR GSFLOW 
 DATE: 01 27 1991              CUMULATIVE TIME STEP:      27
 MODFLOW STRESS PERIOD      5     CURRENT TIME STEP:     119     ITERATIONS:       5

 -----------------------------------------------------------------------------------

   CUMULATIVE VOLUMES               L**3   RATES FOR THIS TIME STEP           L**3/T
   ------------------                      ------------------------

                                     IN                                         IN
                                     --                                         --
        PRECIPITATION =        2596386.94          PRECIPITATION =                  
           STREAMFLOW =                               STREAMFLOW =                  
     GW BOUNDARY FLOW =              9.65       GW BOUNDARY FLOW =              0.48


                                    OUT                                        OUT
                                    ---                                        ---
   EVAPOTRANSPIRATION =        1525463.37     EVAPOTRANSPIRATION =           1702.75
           STREAMFLOW =        1240481.74             STREAMFLOW =          11917.07
     GW BOUNDARY FLOW =           4269.96       GW BOUNDARY FLOW =             35.74

   INFLOWS - OUTFLOWS =        -173818.47     INFLOWS - OUTFLOWS =         -13655.08
             --------                                   --------

 TOTAL STORAGE CHANGE =        -197813.41         STORAGE CHANGE =         -13665.44
       --------------                             --------------
         LAND SURFACE =         323033.09           LAND SURFACE =           -547.84
            SOIL ZONE =        1561720.17              SOIL ZONE =          -1066.23
     UNSATURATED ZONE =       -2771137.93       UNSATURATED ZONE =         -12627.80
       SATURATED ZONE =         688570.81         SATURATED ZONE =            576.43

 OVERALL BUDGET ERROR =          23994.94           BUDGET ERROR =             10.36


  PERCENT DISCREPANCY =              0.86    PERCENT DISCREPANCY =              0.08



1
 SUMMARY VOLUMETRIC BUDGET FOR GSFLOW 
 DATE: 02 03 1991              CUMULATIVE TIME STEP:       3
 MODFLOW STRESS PERIOD      6     CURRENT TIME STEP:     126     ITERATIONS:       6

 -----------------------------------------------------------------------------------

   CUMULATIVE VOLUMES               L**3   RATES FOR THIS TIME STEP           L**3/T
   ------------------                      ------------------------

                                     IN                                         IN
                                     --                                         --
        PRECIPITATION =        3228422.31          PRECIPITATION =          30459.53
           STREAMFLOW =                               STREAMFLOW =                  
     GW BOUNDARY FLOW =             13.30       GW BOUNDARY FLOW =              0.55


                                    OUT                                        OUT
                                    ---                                        ---
   EVAPOTRANSPIRATION =        1632477.05     EVAPOTRANSPIRATION =          21403.91
           STREAMFLOW =        1325326.17             STREAMFLOW =          12221.61
     GW BOUNDARY FLOW =           4520.08       GW BOUNDARY FLOW =             35.74

   INFLOWS - OUTFLOWS =         266112.31     INFLOWS - OUTFLOWS =          -3201.17
             --------                                   --------

 TOTAL STORAGE CHANGE =         234948.66         STORAGE CHANGE =          -3478.19
       --------------                             --------------
         LAND SURFACE =         157683.43           LAND SURFACE =         -26376.35
            SOIL ZONE =        2245257.88              SOIL ZONE =          35088.40
     UNSATURATED ZONE =       -2857744.40       UNSATURATED ZONE =         -12194.26
       SATURATED ZONE =         689751.24         SATURATED ZONE =              4.01

 OVERALL BUDGET ERROR =          31163.65           BUDGET ERROR =            277.02


  PERCENT DISCREPANCY =              0.97    PERCENT DISCREPANCY =              0.82



1
 SUMMARY VOLUMETRIC BUDGET FOR GSFLOW 
 DATE: 02 10 1991              CUMULATIVE TIME STEP:      10
 MODFLOW STRESS PERIOD      6     CURRENT TIME STEP:     133     ITERATIONS:       5

 -----------------------------------------------------------------------------------

   CUMULATIVE VOLUMES               L**3   RATES FOR THIS TIME STEP           L**3/T
   ------------------                      ------------------------

                                     IN                                         IN
                                     --                                         --
        PRECIPITATION =        3510173.01          PRECIPITATION =                  
           STREAMFLOW =                               STREAMFLOW =                  
     GW BOUNDARY FLOW =             17.48       GW BOUNDARY FLOW =              0.63


                                    OUT                                        OUT
                                    ---                                        ---
   EVAPOTRANSPIRATION =        1800142.90     EVAPOTRANSPIRATION =          25663.26
           STREAMFLOW =        1411279.09             STREAMFLOW =          12140.87
     GW BOUNDARY FLOW =           4770.17       GW BOUNDARY FLOW =             35.72

   INFLOWS - OUTFLOWS =         293998.34     INFLOWS - OUTFLOWS =         -37839.22
             --------                                   --------

 TOTAL STORAGE CHANGE =         259864.16         STORAGE CHANGE =         -37786.61
       --------------                             --------------
         LAND SURFACE =          75877.11           LAND SURFACE =          -8469.89
            SOIL ZONE =        2437152.83              SOIL ZONE =         -17105.21
     UNSATURATED ZONE =       -2940933.96       UNSATURATED ZONE =         -11690.37
       SATURATED ZONE =         687767.58         SATURATED ZONE =           -521.15

 OVERALL BUDGET ERROR =          34134.18           BUDGET ERROR =            -52.61


  PERCENT DISCREPANCY =              0.98    PERCENT DISCREPANCY =             -0.14



1
 SUMMARY VOLUMETRIC BUDGET FOR GSFLOW 
 DATE: 02 17 1991              CUMULATIVE TIME STEP:      17
 MODFLOW STRESS PERIOD      6     CURRENT TIME STEP:     140     ITERATIONS:       5

 -----------------------------------------------------------------------------------

   CUMULATIVE VOLUMES               L**3   RATES FOR THIS TIME STEP           L**3/T
   ------------------                      ------------------------

                                     IN                                         IN
                                     --                                         --
        PRECIPITATION =        3510173.01          PRECIPITATION =                  
           STREAMFLOW =                               STREAMFLOW =                  
     GW BOUNDARY FLOW =             22.15       GW BOUNDARY FLOW =              0.70


                                    OUT                                        OUT
                                    ---                                        ---
   EVAPOTRANSPIRATION =        2043175.88     EVAPOTRANSPIRATION =          23705.65
           STREAMFLOW =        1495848.35             STREAMFLOW =          12084.00
     GW BOUNDARY FLOW =           5020.09       GW BOUNDARY FLOW =             35.68

   INFLOWS - OUTFLOWS =         -33849.15     INFLOWS - OUTFLOWS =         -35824.64
             --------                                   --------

 TOTAL STORAGE CHANGE =         -67330.29         STORAGE CHANGE =         -35744.75
       --------------                             --------------
         LAND SURFACE =          17890.99           LAND SURFACE =          -1143.67
            SOIL ZONE =        2253414.69              SOIL ZONE =         -22470.75
     UNSATURATED ZONE =       -3020560.66       UNSATURATED ZONE =         -11090.76
       SATURATED ZONE =         681924.01         SATURATED ZONE =          -1039.59

 OVERALL BUDGET ERROR =          33481.14           BUDGET ERROR =            -79.88


  PERCENT DISCREPANCY =              0.94    PERCENT DISCREPANCY =             -0.22



1
 SUMMARY VOLUMETRIC BUDGET FOR GSFLOW 
 DATE: 02 24 1991              CUMULATIVE TIME STEP:      24
 MODFLOW STRESS PERIOD      6     CURRENT TIME STEP:     147     ITERATIONS:       5

 -----------------------------------------------------------------------------------

   CUMULATIVE VOLUMES               L**3   RATES FOR THIS TIME STEP           L**3/T
   ------------------                      ------------------------

                                     IN                                         IN
                                     --                                         --
        PRECIPITATION =        3510173.01          PRECIPITATION =                  
           STREAMFLOW =                               STREAMFLOW =                  
     GW BOUNDARY FLOW =             27.30       GW BOUNDARY FLOW =              0.76


                                    OUT                                        OUT
                                    ---                                        ---
   EVAPOTRANSPIRATION =        2256616.45     EVAPOTRANSPIRATION =          21630.12
           STREAMFLOW =        1580007.15             STREAMFLOW =          11996.69
     GW BOUNDARY FLOW =           5269.12       GW BOUNDARY FLOW =             35.48

   INFLOWS - OUTFLOWS =        -331692.42     INFLOWS - OUTFLOWS =         -33661.54
             --------                                   --------

 TOTAL STORAGE CHANGE =        -364448.71         STORAGE CHANGE =         -33585.45
       --------------                             --------------
         LAND SURFACE =           7435.72           LAND SURFACE =           -217.69
            SOIL ZONE =        2052181.64              SOIL ZONE =         -21120.42
     UNSATURATED ZONE =       -3096545.25       UNSATURATED ZONE =         -10680.56
       SATURATED ZONE =         672478.40         SATURATED ZONE =          -1566.79

 OVERALL BUDGET ERROR =          32756.29           BUDGET ERROR =            -76.08


  PERCENT DISCREPANCY =              0.85    PERCENT DISCREPANCY =             -0.23



1
 SUMMARY VOLUMETRIC BUDGET FOR GSFLOW 
 DATE: 03 03 1991              CUMULATIVE TIME STEP:       3
 MODFLOW STRESS PERIOD      7     CURRENT TIME STEP:     154     ITERATIONS:       5

 -----------------------------------------------------------------------------------

   CUMULATIVE VOLUMES               L**3   RATES FOR THIS TIME STEP           L**3/T
   ------------------                      ------------------------

                                     IN                                         IN
                                     --                                         --
        PRECIPITATION =        6220189.63          PRECIPITATION =        1243187.24
           STREAMFLOW =                               STREAMFLOW =                  
     GW BOUNDARY FLOW =             32.90       GW BOUNDARY FLOW =              0.83


                                    OUT                                        OUT
                                    ---                                        ---
   EVAPOTRANSPIRATION =        2408690.93     EVAPOTRANSPIRATION =           8454.44
           STREAMFLOW =        1663715.85             STREAMFLOW =          12306.29
     GW BOUNDARY FLOW =           5516.82       GW BOUNDARY FLOW =             35.34

   INFLOWS - OUTFLOWS =        2142298.92     INFLOWS - OUTFLOWS =        1222392.00
             --------                                   --------

 TOTAL STORAGE CHANGE =        2102473.89         STORAGE CHANGE =        1214852.89
       --------------                             --------------
         LAND SURFACE =        2352761.88           LAND SURFACE =         894135.84
            SOIL ZONE =        2261325.20              SOIL ZONE =         333375.07
     UNSATURATED ZONE =       -3169500.94       UNSATURATED ZONE =         -10272.34
       SATURATED ZONE =         657886.89         SATURATED ZONE =          -2385.70

 OVERALL BUDGET ERROR =          39825.03           BUDGET ERROR =           7539.11


  PERCENT DISCREPANCY =              0.64    PERCENT DISCREPANCY =              0.61



1
 SUMMARY VOLUMETRIC BUDGET FOR GSFLOW 
 DATE: 03 10 1991              CUMULATIVE TIME STEP:      10
 MODFLOW STRESS PERIOD      7     CURRENT TIME STEP:     161     ITERATIONS:       5

 -----------------------------------------------------------------------------------

   CUMULATIVE VOLUMES               L**3   RATES FOR THIS TIME STEP           L**3/T
   ------------------                      ------------------------

                                     IN                                         IN
                                     --                                         --
        PRECIPITATION =        8746030.42          PRECIPITATION =          32888.55
           STREAMFLOW =                               STREAMFLOW =                  
     GW BOUNDARY FLOW =             38.93       GW BOUNDARY FLOW =              0.89


                                    OUT                                        OUT
                                    ---                                        ---
   EVAPOTRANSPIRATION =        2481959.29     EVAPOTRANSPIRATION =           8863.51
           STREAMFLOW =        1850043.74             STREAMFLOW =          22236.01
     GW BOUNDARY FLOW =           5765.78       GW BOUNDARY FLOW =             35.45

   INFLOWS - OUTFLOWS =        4408300.54     INFLOWS - OUTFLOWS =           1754.47
             --------                                   --------

 TOTAL STORAGE CHANGE =        4355119.46         STORAGE CHANGE =           1534.87
       --------------                             --------------
         LAND SURFACE =        2523463.28           LAND SURFACE =         -14137.08
            SOIL ZONE =        4369364.03              SOIL ZONE =          18898.79
     UNSATURATED ZONE =       -3190356.56       UNSATURATED ZONE =          -1921.22
       SATURATED ZONE =         652647.66         SATURATED ZONE =          -1305.65

 OVERALL BUDGET ERROR =          53181.07           BUDGET ERROR =            219.59


  PERCENT DISCREPANCY =              0.61    PERCENT DISCREPANCY =              0.67



1
 SUMMARY VOLUMETRIC BUDGET FOR GSFLOW 
 DATE: 03 17 1991              CUMULATIVE TIME STEP:      17
 MODFLOW STRESS PERIOD      7     CURRENT TIME STEP:     168     ITERATIONS:       5

 -----------------------------------------------------------------------------------

   CUMULATIVE VOLUMES               L**3   RATES FOR THIS TIME STEP           L**3/T
   ------------------                      ------------------------

                                     IN                                         IN
                                     --                                         --
        PRECIPITATION =        9897129.71          PRECIPITATION =         157865.04
           STREAMFLOW =                               STREAMFLOW =                  
     GW BOUNDARY FLOW =             45.37       GW BOUNDARY FLOW =              0.95


                                    OUT                                        OUT
                                    ---                                        ---
   EVAPOTRANSPIRATION =        2509798.12     EVAPOTRANSPIRATION =           8079.77
           STREAMFLOW =        1993251.78             STREAMFLOW =          19805.50
     GW BOUNDARY FLOW =           6013.07       GW BOUNDARY FLOW =             35.25

   INFLOWS - OUTFLOWS =        5388112.10     INFLOWS - OUTFLOWS =         129945.47
             --------                                   --------

 TOTAL STORAGE CHANGE =        5335036.66         STORAGE CHANGE =         129990.39
       --------------                             --------------
         LAND SURFACE =        3672302.31           LAND SURFACE =         157496.61
            SOIL ZONE =        4229683.78              SOIL ZONE =         -22764.16
     UNSATURATED ZONE =       -3207299.30       UNSATURATED ZONE =          -2698.16
       SATURATED ZONE =         640348.60         SATURATED ZONE =          -2043.93

 OVERALL BUDGET ERROR =          53075.44           BUDGET ERROR =            -44.91


  PERCENT DISCREPANCY =              0.54    PERCENT DISCREPANCY =             -0.03



1
 SUMMARY VOLUMETRIC BUDGET FOR GSFLOW 
 DATE: 03 24 1991              CUMULATIVE TIME STEP:      24
 MODFLOW STRESS PERIOD      7     CURRENT TIME STEP:     175     ITERATIONS:       5

 -----------------------------------------------------------------------------------

   CUMULATIVE VOLUMES               L**3   RATES FOR THIS TIME STEP           L**3/T
   ------------------                      ------------------------

                                     IN                                         IN
                                     --                                         --
        PRECIPITATION =        1.1673D+07          PRECIPITATION =        1230031.83
           STREAMFLOW =                               STREAMFLOW =                  
     GW BOUNDARY FLOW =             52.22       GW BOUNDARY FLOW =              1.00


                                    OUT                                        OUT
                                    ---                                        ---
   EVAPOTRANSPIRATION =        2548622.06     EVAPOTRANSPIRATION =           4663.50
           STREAMFLOW =        2127808.87             STREAMFLOW =          18923.19
     GW BOUNDARY FLOW =           6259.16       GW BOUNDARY FLOW =             35.09

   INFLOWS - OUTFLOWS =        6990473.63     INFLOWS - OUTFLOWS =        1206411.06
             --------                                   --------

 TOTAL STORAGE CHANGE =        6937342.98         STORAGE CHANGE =        1206413.90
       --------------                             --------------
         LAND SURFACE =        5426161.22           LAND SURFACE =        1230031.83
            SOIL ZONE =        4116662.67              SOIL ZONE =         -17688.30
     UNSATURATED ZONE =       -3229829.58       UNSATURATED ZONE =          -3465.78
       SATURATED ZONE =         624347.19         SATURATED ZONE =          -2463.89

 OVERALL BUDGET ERROR =          53130.65           BUDGET ERROR =             -2.84


  PERCENT DISCREPANCY =              0.46    PERCENT DISCREPANCY =             -0.00



1
 SUMMARY VOLUMETRIC BUDGET FOR GSFLOW 
 DATE: 03 31 1991              CUMULATIVE TIME STEP:      31
 MODFLOW STRESS PERIOD      7     CURRENT TIME STEP:     182     ITERATIONS:       6

 -----------------------------------------------------------------------------------

   CUMULATIVE VOLUMES               L**3   RATES FOR THIS TIME STEP           L**3/T
   ------------------                      ------------------------

                                     IN                                         IN
                                     --                                         --
        PRECIPITATION =        1.2495D+07          PRECIPITATION =                  
           STREAMFLOW =                               STREAMFLOW =                  
     GW BOUNDARY FLOW =             59.46       GW BOUNDARY FLOW =              1.06


                                    OUT                                        OUT
                                    ---                                        ---
   EVAPOTRANSPIRATION =        2670322.14     EVAPOTRANSPIRATION =          48028.88
           STREAMFLOW =        2262394.60             STREAMFLOW =          22427.75
     GW BOUNDARY FLOW =           6504.27       GW BOUNDARY FLOW =             35.02

   INFLOWS - OUTFLOWS =        7556163.74     INFLOWS - OUTFLOWS =         -70490.60
             --------                                   --------

 TOTAL STORAGE CHANGE =        7501646.42         STORAGE CHANGE =         -71434.75
       --------------                             --------------
         LAND SURFACE =        5977198.26           LAND SURFACE =        -148137.48
            SOIL ZONE =        4172312.56              SOIL ZONE =          81882.10
     UNSATURATED ZONE =       -3254041.22       UNSATURATED ZONE =          -2459.60
       SATURATED ZONE =         606175.13         SATURATED ZONE =          -2719.81

 OVERALL BUDGET ERROR =          54517.32           BUDGET ERROR =            944.15


  PERCENT DISCREPANCY =              0.44    PERCENT DISCREPANCY =              1.33



1
 SUMMARY VOLUMETRIC BUDGET FOR GSFLOW 
 DATE: 04 07 1991              CUMULATIVE TIME STEP:       7
 MODFLOW STRESS PERIOD      8     CURRENT TIME STEP:     189     ITERATIONS:       7

 -----------------------------------------------------------------------------------

   CUMULATIVE VOLUMES               L**3   RATES FOR THIS TIME STEP           L**3/T
   ------------------                      ------------------------

                                     IN                                         IN
                                     --                                         --
        PRECIPITATION =        1.3018D+07          PRECIPITATION =                  
           STREAMFLOW =                               STREAMFLOW =                  
     GW BOUNDARY FLOW =             67.06       GW BOUNDARY FLOW =              1.11


                                    OUT                                        OUT
                                    ---                                        ---
   EVAPOTRANSPIRATION =        2978367.03     EVAPOTRANSPIRATION =          15949.26
           STREAMFLOW =        2585036.81             STREAMFLOW =          64539.10
     GW BOUNDARY FLOW =           6751.72       GW BOUNDARY FLOW =             35.61

   INFLOWS - OUTFLOWS =        7447648.25     INFLOWS - OUTFLOWS =         -80522.87
             --------                                   --------

 TOTAL STORAGE CHANGE =        7384004.74         STORAGE CHANGE =         -81100.58
       --------------                             --------------
         LAND SURFACE =        4335933.24           LAND SURFACE =         -73164.41
            SOIL ZONE =        5687518.89              SOIL ZONE =         -15245.03
     UNSATURATED ZONE =       -3230446.57       UNSATURATED ZONE =           9289.74
       SATURATED ZONE =         590997.23         SATURATED ZONE =          -1980.93

 OVERALL BUDGET ERROR =          63643.51           BUDGET ERROR =            577.71


  PERCENT DISCREPANCY =              0.49    PERCENT DISCREPANCY =              0.71



1
 SUMMARY VOLUMETRIC BUDGET FOR GSFLOW 
 DATE: 04 14 1991              CUMULATIVE TIME STEP:      14
 MODFLOW STRESS PERIOD      8     CURRENT TIME STEP:     196     ITERATIONS:       7

 -----------------------------------------------------------------------------------

   CUMULATIVE VOLUMES               L**3   RATES FOR THIS TIME STEP           L**3/T
   ------------------                      ------------------------

                                     IN                                         IN
                                     --                                         --
        PRECIPITATION =        1.3018D+07          PRECIPITATION =                  
           STREAMFLOW =                               STREAMFLOW =                  
     GW BOUNDARY FLOW =             74.99       GW BOUNDARY FLOW =              1.15


                                    OUT                                        OUT
                                    ---                                        ---
   EVAPOTRANSPIRATION =        3162437.32     EVAPOTRANSPIRATION =          42038.25
           STREAMFLOW =        3083127.63             STREAMFLOW =          75838.82
     GW BOUNDARY FLOW =           7001.08       GW BOUNDARY FLOW =             35.63

   INFLOWS - OUTFLOWS =        6765245.69     INFLOWS - OUTFLOWS =        -117911.56
             --------                                   --------

 TOTAL STORAGE CHANGE =        6698357.99         STORAGE CHANGE =        -118780.34
       --------------                             --------------
         LAND SURFACE =        3672284.11           LAND SURFACE =        -192335.10
            SOIL ZONE =        5616405.75              SOIL ZONE =          66811.16
     UNSATURATED ZONE =       -3168554.99       UNSATURATED ZONE =           8392.81
       SATURATED ZONE =         578220.85         SATURATED ZONE =          -1649.26

 OVERALL BUDGET ERROR =          66887.70           BUDGET ERROR =            868.79


  PERCENT DISCREPANCY =              0.52    PERCENT DISCREPANCY =              0.73



1
 SUMMARY VOLUMETRIC BUDGET FOR GSFLOW 
 DATE: 04 21 1991              CUMULATIVE TIME STEP:      21
 MODFLOW STRESS PERIOD      8     CURRENT TIME STEP:     203     ITERATIONS:       9

 -----------------------------------------------------------------------------------

   CUMULATIVE VOLUMES               L**3   RATES FOR THIS TIME STEP           L**3/T
   ------------------                      ------------------------

                                     IN                                         IN
                                     --                                         --
        PRECIPITATION =        1.3034D+07          PRECIPITATION =                  
           STREAMFLOW =                               STREAMFLOW =                  
     GW BOUNDARY FLOW =             83.21       GW BOUNDARY FLOW =              1.19


                                    OUT                                        OUT
                                    ---                                        ---
   EVAPOTRANSPIRATION =        3416065.11     EVAPOTRANSPIRATION =          46890.67
           STREAMFLOW =        3655919.61             STREAMFLOW =          93508.24
     GW BOUNDARY FLOW =           7250.66       GW BOUNDARY FLOW =             35.76

   INFLOWS - OUTFLOWS =        5954909.93     INFLOWS - OUTFLOWS =        -140433.48
             --------                                   --------

 TOTAL STORAGE CHANGE =        5883329.05         STORAGE CHANGE =        -141259.31
       --------------                             --------------
         LAND SURFACE =        2500870.94           LAND SURFACE =        -216968.59
            SOIL ZONE =        5920221.98              SOIL ZONE =          66460.52
     UNSATURATED ZONE =       -3104860.10       UNSATURATED ZONE =          10601.40
       SATURATED ZONE =         567093.60         SATURATED ZONE =          -1352.69

 OVERALL BUDGET ERROR =          71580.87           BUDGET ERROR =            825.83


  PERCENT DISCREPANCY =              0.55    PERCENT DISCREPANCY =              0.59



1
 SUMMARY VOLUMETRIC BUDGET FOR GSFLOW 
 DATE: 04 28 1991              CUMULATIVE TIME STEP:      28
 MODFLOW STRESS PERIOD      8     CURRENT TIME STEP:     210     ITERATIONS:       6

 -----------------------------------------------------------------------------------

   CUMULATIVE VOLUMES               L**3   RATES FOR THIS TIME STEP           L**3/T
   ------------------                      ------------------------

                                     IN                                         IN
                                     --                                         --
        PRECIPITATION =        1.3303D+07          PRECIPITATION =                  
           STREAMFLOW =                               STREAMFLOW =                  
     GW BOUNDARY FLOW =             91.70       GW BOUNDARY FLOW =              1.23


                                    OUT                                        OUT
                                    ---                                        ---
   EVAPOTRANSPIRATION =        3684466.48     EVAPOTRANSPIRATION =          58222.39
           STREAMFLOW =        4327317.56             STREAMFLOW =          95180.88
     GW BOUNDARY FLOW =           7500.81       GW BOUNDARY FLOW =             35.69

   INFLOWS - OUTFLOWS =        5284237.35     INFLOWS - OUTFLOWS =        -153437.73
             --------                                   --------

 TOTAL STORAGE CHANGE =        5208862.66         STORAGE CHANGE =        -153754.53
       --------------                             --------------
         LAND SURFACE =        1748447.64           LAND SURFACE =        -137153.52
            SOIL ZONE =        5929580.29              SOIL ZONE =         -25891.22
     UNSATURATED ZONE =       -3029303.57       UNSATURATED ZONE =          10326.19
       SATURATED ZONE =         560135.28         SATURATED ZONE =          -1036.04

 OVERALL BUDGET ERROR =          75374.69           BUDGET ERROR =            316.81


  PERCENT DISCREPANCY =              0.57    PERCENT DISCREPANCY =              0.21



1
 SUMMARY VOLUMETRIC BUDGET FOR GSFLOW 
 DATE: 05 05 1991              CUMULATIVE TIME STEP:       5
 MODFLOW STRESS PERIOD      9     CURRENT TIME STEP:     217     ITERATIONS:      72

 -----------------------------------------------------------------------------------

   CUMULATIVE VOLUMES               L**3   RATES FOR THIS TIME STEP           L**3/T
   ------------------                      ------------------------

                                     IN                                         IN
                                     --                                         --
        PRECIPITATION =        1.3510D+07          PRECIPITATION =                  
           STREAMFLOW =                               STREAMFLOW =                  
     GW BOUNDARY FLOW =            100.46       GW BOUNDARY FLOW =              1.27


                                    OUT                                        OUT
                                    ---                                        ---
   EVAPOTRANSPIRATION =        4061967.12     EVAPOTRANSPIRATION =          90404.20
           STREAMFLOW =        4935292.13             STREAMFLOW =          86496.22
     GW BOUNDARY FLOW =           7749.45       GW BOUNDARY FLOW =             35.45

   INFLOWS - OUTFLOWS =        4504799.89     INFLOWS - OUTFLOWS =        -176934.61
             --------                                   --------

 TOTAL STORAGE CHANGE =        4427861.21         STORAGE CHANGE =        -177056.63
       --------------                             --------------
         LAND SURFACE =        1036420.07           LAND SURFACE =        -150153.36
            SOIL ZONE =        5801190.02              SOIL ZONE =         -35907.99
     UNSATURATED ZONE =       -2963651.75       UNSATURATED ZONE =           8108.69
       SATURATED ZONE =         553899.41         SATURATED ZONE =            895.96

 OVERALL BUDGET ERROR =          76938.69           BUDGET ERROR =            122.03


  PERCENT DISCREPANCY =              0.57    PERCENT DISCREPANCY =              0.07



1
 SUMMARY VOLUMETRIC BUDGET FOR GSFLOW 
 DATE: 05 12 1991              CUMULATIVE TIME STEP:      12
 MODFLOW STRESS PERIOD      9     CURRENT TIME STEP:     224     ITERATIONS:       7

 -----------------------------------------------------------------------------------

   CUMULATIVE VOLUMES               L**3   RATES FOR THIS TIME STEP           L**3/T
   ------------------                      ------------------------

                                     IN                                         IN
                                     --                                         --
        PRECIPITATION =        1.4029D+07          PRECIPITATION =                  
           STREAMFLOW =                               STREAMFLOW =                  
     GW BOUNDARY FLOW =            109.48       GW BOUNDARY FLOW =              1.30


                                    OUT                                        OUT
                                    ---                                        ---
   EVAPOTRANSPIRATION =        4457582.82     EVAPOTRANSPIRATION =          68948.89
           STREAMFLOW =        5501694.11             STREAMFLOW =          84029.33
     GW BOUNDARY FLOW =           7996.37       GW BOUNDARY FLOW =             35.23

   INFLOWS - OUTFLOWS =        4062058.34     INFLOWS - OUTFLOWS =        -153012.14
             --------                                   --------

 TOTAL STORAGE CHANGE =        3983222.77         STORAGE CHANGE =        -153067.54
       --------------                             --------------
         LAND SURFACE =         579124.41           LAND SURFACE =        -205427.93
            SOIL ZONE =        5760809.27              SOIL ZONE =          45093.76
     UNSATURATED ZONE =       -2901860.85       UNSATURATED ZONE =           8590.59
       SATURATED ZONE =         545146.06         SATURATED ZONE =          -1324.03

 OVERALL BUDGET ERROR =          78835.56           BUDGET ERROR =             55.39


  PERCENT DISCREPANCY =              0.56    PERCENT DISCREPANCY =              0.04



1
 SUMMARY VOLUMETRIC BUDGET FOR GSFLOW 
 DATE: 05 19 1991              CUMULATIVE TIME STEP:      19
 MODFLOW STRESS PERIOD      9     CURRENT TIME STEP:     231     ITERATIONS:       9

 -----------------------------------------------------------------------------------

   CUMULATIVE VOLUMES               L**3   RATES FOR THIS TIME STEP           L**3/T
   ------------------                      ------------------------

                                     IN                                         IN
                                     --                                         --
        PRECIPITATION =        1.4365D+07          PRECIPITATION =                  
           STREAMFLOW =                               STREAMFLOW =                  
     GW BOUNDARY FLOW =            118.77       GW BOUNDARY FLOW =              1.34


                                    OUT                                        OUT
                                    ---                                        ---
   EVAPOTRANSPIRATION =        4896251.45     EVAPOTRANSPIRATION =          20442.83
           STREAMFLOW =        5993441.11             STREAMFLOW =          62275.78
     GW BOUNDARY FLOW =           8241.08       GW BOUNDARY FLOW =             34.77

   INFLOWS - OUTFLOWS =        3467563.44     INFLOWS - OUTFLOWS =         -82752.04
             --------                                   --------

 TOTAL STORAGE CHANGE =        3387820.89         STORAGE CHANGE =         -82798.33
       --------------                             --------------
         LAND SURFACE =         228252.15           LAND SURFACE =         -22354.64
            SOIL ZONE =        5477899.21              SOIL ZONE =         -64536.85
     UNSATURATED ZONE =       -2854606.38       UNSATURATED ZONE =           5367.76
       SATURATED ZONE =         536271.54         SATURATED ZONE =          -1274.67

 OVERALL BUDGET ERROR =          79742.55           BUDGET ERROR =             46.30


  PERCENT DISCREPANCY =              0.56    PERCENT DISCREPANCY =              0.06



1
 SUMMARY VOLUMETRIC BUDGET FOR GSFLOW 
 DATE: 05 26 1991              CUMULATIVE TIME STEP:      26
 MODFLOW STRESS PERIOD      9     CURRENT TIME STEP:     238     ITERATIONS:       8

 -----------------------------------------------------------------------------------

   CUMULATIVE VOLUMES               L**3   RATES FOR THIS TIME STEP           L**3/T
   ------------------                      ------------------------

                                     IN                                         IN
                                     --                                         --
        PRECIPITATION =        1.4426D+07          PRECIPITATION =                  
           STREAMFLOW =                               STREAMFLOW =                  
     GW BOUNDARY FLOW =            128.34       GW BOUNDARY FLOW =              1.39


                                    OUT                                        OUT
                                    ---                                        ---
   EVAPOTRANSPIRATION =        5580889.92     EVAPOTRANSPIRATION =          76900.78
           STREAMFLOW =        6346810.20             STREAMFLOW =          37315.04
     GW BOUNDARY FLOW =           8482.60       GW BOUNDARY FLOW =             34.22

   INFLOWS - OUTFLOWS =        2490443.23     INFLOWS - OUTFLOWS =        -114248.65
             --------                                   --------

 TOTAL STORAGE CHANGE =        2410763.65         STORAGE CHANGE =        -114361.78
       --------------                             --------------
         LAND SURFACE =          55233.90           LAND SURFACE =          -8157.37
            SOIL ZONE =        4666014.83              SOIL ZONE =        -103950.90
     UNSATURATED ZONE =       -2835475.94       UNSATURATED ZONE =           -281.23
       SATURATED ZONE =         524986.00         SATURATED ZONE =          -1972.36

 OVERALL BUDGET ERROR =          79679.58           BUDGET ERROR =            113.13


  PERCENT DISCREPANCY =              0.55    PERCENT DISCREPANCY =              0.10



1
 SUMMARY VOLUMETRIC BUDGET FOR GSFLOW 
 DATE: 06 02 1991              CUMULATIVE TIME STEP:       2
 MODFLOW STRESS PERIOD     10     CURRENT TIME STEP:     245     ITERATIONS:       9

 -----------------------------------------------------------------------------------

   CUMULATIVE VOLUMES               L**3   RATES FOR THIS TIME STEP           L**3/T
   ------------------                      ------------------------

                                     IN                                         IN
                                     --                                         --
        PRECIPITATION =        1.4671D+07          PRECIPITATION =                  
           STREAMFLOW =                               STREAMFLOW =                  
     GW BOUNDARY FLOW =            138.20       GW BOUNDARY FLOW =              1.43


                                    OUT                                        OUT
                                    ---                                        ---
   EVAPOTRANSPIRATION =        6170065.15     EVAPOTRANSPIRATION =         127566.80
           STREAMFLOW =        6573387.55             STREAMFLOW =          28353.00
     GW BOUNDARY FLOW =           8720.82       GW BOUNDARY FLOW =             33.89

   INFLOWS - OUTFLOWS =        1918939.48     INFLOWS - OUTFLOWS =        -155952.26
             --------                                   --------

 TOTAL STORAGE CHANGE =        1839661.57         STORAGE CHANGE =        -155374.04
       --------------                             --------------
         LAND SURFACE =          19760.70           LAND SURFACE =          -4094.13
            SOIL ZONE =        4161649.20              SOIL ZONE =        -145596.67
     UNSATURATED ZONE =       -2849740.71       UNSATURATED ZONE =          -2974.78
       SATURATED ZONE =         507987.01         SATURATED ZONE =          -2708.53

 OVERALL BUDGET ERROR =          79277.91           BUDGET ERROR =           -578.21


  PERCENT DISCREPANCY =              0.54    PERCENT DISCREPANCY =             -0.37



1
 SUMMARY VOLUMETRIC BUDGET FOR GSFLOW 
 DATE: 06 09 1991              CUMULATIVE TIME STEP:       9
 MODFLOW STRESS PERIOD     10     CURRENT TIME STEP:     252     ITERATIONS:       7

 -----------------------------------------------------------------------------------

   CUMULATIVE VOLUMES               L**3   RATES FOR THIS TIME STEP           L**3/T
   ------------------                      ------------------------

                                     IN                                         IN
                                     --                                         --
        PRECIPITATION =        1.4671D+07          PRECIPITATION =                  
           STREAMFLOW =                               STREAMFLOW =                  
     GW BOUNDARY FLOW =            148.36       GW BOUNDARY FLOW =              1.47


                                    OUT                                        OUT
                                    ---                                        ---
   EVAPOTRANSPIRATION =        6958546.39     EVAPOTRANSPIRATION =         172470.54
           STREAMFLOW =        6731452.90             STREAMFLOW =          19032.37
     GW BOUNDARY FLOW =           8956.54       GW BOUNDARY FLOW =             33.53

   INFLOWS - OUTFLOWS =         972167.33     INFLOWS - OUTFLOWS =        -191534.97
             --------                                   --------

 TOTAL STORAGE CHANGE =         894395.59         STORAGE CHANGE =        -190830.36
       --------------                             --------------
         LAND SURFACE =           3957.39           LAND SURFACE =          -2186.13
            SOIL ZONE =        3289875.61              SOIL ZONE =        -178839.32
     UNSATURATED ZONE =       -2884674.79       UNSATURATED ZONE =          -6064.48
       SATURATED ZONE =         485231.48         SATURATED ZONE =          -3740.51

 OVERALL BUDGET ERROR =          77771.74           BUDGET ERROR =           -704.61


  PERCENT DISCREPANCY =              0.53    PERCENT DISCREPANCY =             -0.37



1
 SUMMARY VOLUMETRIC BUDGET FOR GSFLOW 
 DATE: 06 16 1991              CUMULATIVE TIME STEP:      16
 MODFLOW STRESS PERIOD     10     CURRENT TIME STEP:     259     ITERATIONS:       6

 -----------------------------------------------------------------------------------

   CUMULATIVE VOLUMES               L**3   RATES FOR THIS TIME STEP           L**3/T
   ------------------                      ------------------------

                                     IN                                         IN
                                     --                                         --
        PRECIPITATION =        1.4671D+07          PRECIPITATION =                  
           STREAMFLOW =                               STREAMFLOW =                  
     GW BOUNDARY FLOW =            158.84       GW BOUNDARY FLOW =              1.52


                                    OUT                                        OUT
                                    ---                                        ---
   EVAPOTRANSPIRATION =        7975181.50     EVAPOTRANSPIRATION =         117014.80
           STREAMFLOW =        6834149.74             STREAMFLOW =          12770.29
     GW BOUNDARY FLOW =           9188.71       GW BOUNDARY FLOW =             33.05

   INFLOWS - OUTFLOWS =        -147386.31     INFLOWS - OUTFLOWS =        -129816.62
             --------                                   --------

 TOTAL STORAGE CHANGE =        -219828.71         STORAGE CHANGE =        -129039.52
       --------------                             --------------
         LAND SURFACE =            106.65           LAND SURFACE =            -66.98
            SOIL ZONE =        2293473.82              SOIL ZONE =        -107782.78
     UNSATURATED ZONE =       -2966838.23       UNSATURATED ZONE =         -15784.01
       SATURATED ZONE =         453422.61         SATURATED ZONE =          -5405.83

 OVERALL BUDGET ERROR =          72442.39           BUDGET ERROR =           -777.10


  PERCENT DISCREPANCY =              0.49    PERCENT DISCREPANCY =             -0.60



1
 SUMMARY VOLUMETRIC BUDGET FOR GSFLOW 
 DATE: 06 23 1991              CUMULATIVE TIME STEP:      23
 MODFLOW STRESS PERIOD     10     CURRENT TIME STEP:     266     ITERATIONS:       7

 -----------------------------------------------------------------------------------

   CUMULATIVE VOLUMES               L**3   RATES FOR THIS TIME STEP           L**3/T
   ------------------                      ------------------------

                                     IN                                         IN
                                     --                                         --
        PRECIPITATION =        1.4671D+07          PRECIPITATION =                  
           STREAMFLOW =                               STREAMFLOW =                  
     GW BOUNDARY FLOW =            169.62       GW BOUNDARY FLOW =              1.56


                                    OUT                                        OUT
                                    ---                                        ---
   EVAPOTRANSPIRATION =        8517702.56     EVAPOTRANSPIRATION =          38764.33
           STREAMFLOW =        6916711.48             STREAMFLOW =          12030.75
     GW BOUNDARY FLOW =           9419.39       GW BOUNDARY FLOW =             32.93

   INFLOWS - OUTFLOWS =        -772689.00     INFLOWS - OUTFLOWS =         -50826.45
             --------                                   --------

 TOTAL STORAGE CHANGE =        -840953.42         STORAGE CHANGE =         -50546.39
       --------------                             --------------
         LAND SURFACE =             16.57           LAND SURFACE =             -3.65
            SOIL ZONE =        1826719.94              SOIL ZONE =         -31392.44
     UNSATURATED ZONE =       -3077412.75       UNSATURATED ZONE =         -12809.26
       SATURATED ZONE =         409715.82         SATURATED ZONE =          -6341.12

 OVERALL BUDGET ERROR =          68264.41           BUDGET ERROR =           -280.07


  PERCENT DISCREPANCY =              0.44    PERCENT DISCREPANCY =             -0.55



1
 SUMMARY VOLUMETRIC BUDGET FOR GSFLOW 
 DATE: 06 30 1991              CUMULATIVE TIME STEP:      30
 MODFLOW STRESS PERIOD     10     CURRENT TIME STEP:     273     ITERATIONS:       8

 -----------------------------------------------------------------------------------

   CUMULATIVE VOLUMES               L**3   RATES FOR THIS TIME STEP           L**3/T
   ------------------                      ------------------------

                                     IN                                         IN
[...]
   ------------------                      ------------------------

                                     IN                                         IN
                                     --                                         --
        PRECIPITATION =        1.3351D+08          PRECIPITATION =                  
           STREAMFLOW =                               STREAMFLOW =                  
     GW BOUNDARY FLOW =           5625.61       GW BOUNDARY FLOW =              3.53


                                    OUT                                        OUT
                                    ---                                        ---
   EVAPOTRANSPIRATION =        7.3394D+07     EVAPOTRANSPIRATION =          63193.02
           STREAMFLOW =        7.2039D+07             STREAMFLOW =           6658.34
     GW BOUNDARY FLOW =          51123.83       GW BOUNDARY FLOW =             24.00

   INFLOWS - OUTFLOWS =       -1.1971D+07     INFLOWS - OUTFLOWS =         -69871.83
             --------                                   --------

 TOTAL STORAGE CHANGE =       -1.2394D+07         STORAGE CHANGE =         -69840.82
       --------------                             --------------
         LAND SURFACE =         114525.52           LAND SURFACE =          -7766.54
            SOIL ZONE =        1049032.38              SOIL ZONE =         -43570.14
     UNSATURATED ZONE =         -72493.34       UNSATURATED ZONE =         -10579.92
       SATURATED ZONE =       -1.3485D+07         SATURATED ZONE =          -7924.90

 OVERALL BUDGET ERROR =         423374.36           BUDGET ERROR =            -31.01


  PERCENT DISCREPANCY =              0.29    PERCENT DISCREPANCY =             -0.04



1
 SUMMARY VOLUMETRIC BUDGET FOR GSFLOW 
 DATE: 09 10 1995              CUMULATIVE TIME STEP:      10
 MODFLOW STRESS PERIOD     61     CURRENT TIME STEP:    1806     ITERATIONS:       7

 -----------------------------------------------------------------------------------

   CUMULATIVE VOLUMES               L**3   RATES FOR THIS TIME STEP           L**3/T
   ------------------                      ------------------------

                                     IN                                         IN
                                     --                                         --
        PRECIPITATION =        1.3351D+08          PRECIPITATION =                  
           STREAMFLOW =                               STREAMFLOW =                  
     GW BOUNDARY FLOW =           5650.68       GW BOUNDARY FLOW =              3.62


                                    OUT                                        OUT
                                    ---                                        ---
   EVAPOTRANSPIRATION =        7.3748D+07     EVAPOTRANSPIRATION =          47291.98
           STREAMFLOW =        7.2087D+07             STREAMFLOW =           6695.22
     GW BOUNDARY FLOW =          51291.98       GW BOUNDARY FLOW =             24.01

   INFLOWS - OUTFLOWS =       -1.2372D+07     INFLOWS - OUTFLOWS =         -54007.59
             --------                                   --------

 TOTAL STORAGE CHANGE =       -1.2795D+07         STORAGE CHANGE =         -53984.19
       --------------                             --------------
         LAND SURFACE =          75925.35           LAND SURFACE =          -4673.87
            SOIL ZONE =         809020.26              SOIL ZONE =         -31431.03
     UNSATURATED ZONE =        -144460.01       UNSATURATED ZONE =         -10349.77
       SATURATED ZONE =       -1.3536D+07         SATURATED ZONE =          -7530.20

 OVERALL BUDGET ERROR =         423229.92           BUDGET ERROR =            -23.39


  PERCENT DISCREPANCY =              0.29    PERCENT DISCREPANCY =             -0.04



1
 SUMMARY VOLUMETRIC BUDGET FOR GSFLOW 
 DATE: 09 17 1995              CUMULATIVE TIME STEP:      17
 MODFLOW STRESS PERIOD     61     CURRENT TIME STEP:    1813     ITERATIONS:       7

 -----------------------------------------------------------------------------------

   CUMULATIVE VOLUMES               L**3   RATES FOR THIS TIME STEP           L**3/T
   ------------------                      ------------------------

                                     IN                                         IN
                                     --                                         --
        PRECIPITATION =        1.3351D+08          PRECIPITATION =                  
           STREAMFLOW =                               STREAMFLOW =                  
     GW BOUNDARY FLOW =           5676.38       GW BOUNDARY FLOW =              3.71


                                    OUT                                        OUT
                                    ---                                        ---
   EVAPOTRANSPIRATION =        7.4129D+07     EVAPOTRANSPIRATION =          43132.81
           STREAMFLOW =        7.2126D+07             STREAMFLOW =           5870.62
     GW BOUNDARY FLOW =          51459.32       GW BOUNDARY FLOW =             23.93

   INFLOWS - OUTFLOWS =       -1.2793D+07     INFLOWS - OUTFLOWS =         -49023.65
             --------                                   --------

 TOTAL STORAGE CHANGE =       -1.3216D+07         STORAGE CHANGE =         -49000.90
       --------------                             --------------
         LAND SURFACE =          44186.54           LAND SURFACE =          -3043.17
            SOIL ZONE =         564808.37              SOIL ZONE =         -26440.85
     UNSATURATED ZONE =        -220999.94       UNSATURATED ZONE =         -10700.88
       SATURATED ZONE =       -1.3605D+07         SATURATED ZONE =          -8816.67

 OVERALL BUDGET ERROR =         423021.63           BUDGET ERROR =            -22.74


  PERCENT DISCREPANCY =              0.29    PERCENT DISCREPANCY =             -0.05



1
 SUMMARY VOLUMETRIC BUDGET FOR GSFLOW 
 DATE: 09 24 1995              CUMULATIVE TIME STEP:      24
 MODFLOW STRESS PERIOD     61     CURRENT TIME STEP:    1820     ITERATIONS:       6

 -----------------------------------------------------------------------------------

   CUMULATIVE VOLUMES               L**3   RATES FOR THIS TIME STEP           L**3/T
   ------------------                      ------------------------

                                     IN                                         IN
                                     --                                         --
        PRECIPITATION =        1.3351D+08          PRECIPITATION =                  
           STREAMFLOW =                               STREAMFLOW =                  
     GW BOUNDARY FLOW =           5702.68       GW BOUNDARY FLOW =              3.79


                                    OUT                                        OUT
                                    ---                                        ---
   EVAPOTRANSPIRATION =        7.4394D+07     EVAPOTRANSPIRATION =          27427.26
           STREAMFLOW =        7.2168D+07             STREAMFLOW =           6509.50
     GW BOUNDARY FLOW =          51626.80       GW BOUNDARY FLOW =             23.97

   INFLOWS - OUTFLOWS =       -1.3100D+07     INFLOWS - OUTFLOWS =         -33956.94
             --------                                   --------

 TOTAL STORAGE CHANGE =       -1.3523D+07         STORAGE CHANGE =         -33944.81
       --------------                             --------------
         LAND SURFACE =          28055.76           LAND SURFACE =          -1559.79
            SOIL ZONE =         409288.80              SOIL ZONE =         -15434.95
     UNSATURATED ZONE =        -293017.47       UNSATURATED ZONE =          -9211.02
       SATURATED ZONE =       -1.3668D+07         SATURATED ZONE =          -7739.72

 OVERALL BUDGET ERROR =         422874.99           BUDGET ERROR =            -12.13


  PERCENT DISCREPANCY =              0.29    PERCENT DISCREPANCY =             -0.04



1
 SUMMARY VOLUMETRIC BUDGET FOR GSFLOW 
 DATE: 10 01 1995              CUMULATIVE TIME STEP:       1
 MODFLOW STRESS PERIOD     62     CURRENT TIME STEP:    1827     ITERATIONS:       6

 -----------------------------------------------------------------------------------

   CUMULATIVE VOLUMES               L**3   RATES FOR THIS TIME STEP           L**3/T
   ------------------                      ------------------------

                                     IN                                         IN
                                     --                                         --
        PRECIPITATION =        1.3351D+08          PRECIPITATION =                  
           STREAMFLOW =                               STREAMFLOW =                  
     GW BOUNDARY FLOW =           5729.56       GW BOUNDARY FLOW =              3.87


                                    OUT                                        OUT
                                    ---                                        ---
   EVAPOTRANSPIRATION =        7.4510D+07     EVAPOTRANSPIRATION =          16757.25
           STREAMFLOW =        7.2221D+07             STREAMFLOW =           7496.53
     GW BOUNDARY FLOW =          51795.17       GW BOUNDARY FLOW =             24.06

   INFLOWS - OUTFLOWS =       -1.3268D+07     INFLOWS - OUTFLOWS =         -24273.97
             --------                                   --------

 TOTAL STORAGE CHANGE =       -1.3691D+07         STORAGE CHANGE =         -24268.68
       --------------                             --------------
         LAND SURFACE =          22241.70           LAND SURFACE =           -699.89
            SOIL ZONE =         346654.88              SOIL ZONE =          -9153.81
     UNSATURATED ZONE =        -350753.57       UNSATURATED ZONE =          -8087.52
       SATURATED ZONE =       -1.3710D+07         SATURATED ZONE =          -6328.13

 OVERALL BUDGET ERROR =         422829.42           BUDGET ERROR =             -5.29


  PERCENT DISCREPANCY =              0.29    PERCENT DISCREPANCY =             -0.02



1
 SUMMARY VOLUMETRIC BUDGET FOR GSFLOW 
 DATE: 10 08 1995              CUMULATIVE TIME STEP:       8
 MODFLOW STRESS PERIOD     62     CURRENT TIME STEP:    1834     ITERATIONS:       6

 -----------------------------------------------------------------------------------

   CUMULATIVE VOLUMES               L**3   RATES FOR THIS TIME STEP           L**3/T
   ------------------                      ------------------------

                                     IN                                         IN
                                     --                                         --
        PRECIPITATION =        1.3351D+08          PRECIPITATION =                  
           STREAMFLOW =                               STREAMFLOW =                  
     GW BOUNDARY FLOW =           5756.98       GW BOUNDARY FLOW =              3.95


                                    OUT                                        OUT
                                    ---                                        ---
   EVAPOTRANSPIRATION =        7.4633D+07     EVAPOTRANSPIRATION =          15487.70
           STREAMFLOW =        7.2272D+07             STREAMFLOW =           7401.71
     GW BOUNDARY FLOW =          51963.50       GW BOUNDARY FLOW =             24.06

   INFLOWS - OUTFLOWS =       -1.3443D+07     INFLOWS - OUTFLOWS =         -22909.52
             --------                                   --------

 TOTAL STORAGE CHANGE =       -1.3865D+07         STORAGE CHANGE =         -22903.47
       --------------                             --------------
         LAND SURFACE =          18179.46           LAND SURFACE =           -628.45
            SOIL ZONE =         279473.40              SOIL ZONE =          -8135.93
     UNSATURATED ZONE =        -405477.18       UNSATURATED ZONE =          -7458.11
       SATURATED ZONE =       -1.3758D+07         SATURATED ZONE =          -6681.66

 OVERALL BUDGET ERROR =         422772.12           BUDGET ERROR =             -6.05


  PERCENT DISCREPANCY =              0.29    PERCENT DISCREPANCY =             -0.03



1
 SUMMARY VOLUMETRIC BUDGET FOR GSFLOW 
 DATE: 10 15 1995              CUMULATIVE TIME STEP:      15
 MODFLOW STRESS PERIOD     62     CURRENT TIME STEP:    1841     ITERATIONS:       5

 -----------------------------------------------------------------------------------

   CUMULATIVE VOLUMES               L**3   RATES FOR THIS TIME STEP           L**3/T
   ------------------                      ------------------------

                                     IN                                         IN
                                     --                                         --
        PRECIPITATION =        1.3351D+08          PRECIPITATION =                  
           STREAMFLOW =                               STREAMFLOW =                  
     GW BOUNDARY FLOW =           5784.89       GW BOUNDARY FLOW =              4.02


                                    OUT                                        OUT
                                    ---                                        ---
   EVAPOTRANSPIRATION =        7.4749D+07     EVAPOTRANSPIRATION =          18077.65
           STREAMFLOW =        7.2322D+07             STREAMFLOW =           6986.26
     GW BOUNDARY FLOW =          52131.79       GW BOUNDARY FLOW =             24.03

   INFLOWS - OUTFLOWS =       -1.3609D+07     INFLOWS - OUTFLOWS =         -25083.92
             --------                                   --------

 TOTAL STORAGE CHANGE =       -1.4032D+07         STORAGE CHANGE =         -25075.51
       --------------                             --------------
         LAND SURFACE =          14037.99           LAND SURFACE =           -696.58
            SOIL ZONE =         218935.20              SOIL ZONE =          -9198.75
     UNSATURATED ZONE =        -455291.31       UNSATURATED ZONE =          -6966.14
       SATURATED ZONE =       -1.3810D+07         SATURATED ZONE =          -8214.71

 OVERALL BUDGET ERROR =         422707.09           BUDGET ERROR =             -8.41


  PERCENT DISCREPANCY =              0.29    PERCENT DISCREPANCY =             -0.03



1
 SUMMARY VOLUMETRIC BUDGET FOR GSFLOW 
 DATE: 10 22 1995              CUMULATIVE TIME STEP:      22
 MODFLOW STRESS PERIOD     62     CURRENT TIME STEP:    1848     ITERATIONS:       7

 -----------------------------------------------------------------------------------

   CUMULATIVE VOLUMES               L**3   RATES FOR THIS TIME STEP           L**3/T
   ------------------                      ------------------------

                                     IN                                         IN
                                     --                                         --
        PRECIPITATION =        1.3351D+08          PRECIPITATION =                  
           STREAMFLOW =                               STREAMFLOW =                  
     GW BOUNDARY FLOW =           5813.26       GW BOUNDARY FLOW =              4.08


                                    OUT                                        OUT
                                    ---                                        ---
   EVAPOTRANSPIRATION =        7.4853D+07     EVAPOTRANSPIRATION =           4702.85
           STREAMFLOW =        7.2372D+07             STREAMFLOW =           8149.90
     GW BOUNDARY FLOW =          52300.12       GW BOUNDARY FLOW =             24.14

   INFLOWS - OUTFLOWS =       -1.3763D+07     INFLOWS - OUTFLOWS =         -12872.81
             --------                                   --------

 TOTAL STORAGE CHANGE =       -1.4186D+07         STORAGE CHANGE =         -12873.50
       --------------                             --------------
         LAND SURFACE =          10452.80           LAND SURFACE =             -6.45
            SOIL ZONE =         168067.90              SOIL ZONE =          -2048.72
     UNSATURATED ZONE =        -501879.74       UNSATURATED ZONE =          -6185.80
       SATURATED ZONE =       -1.3863D+07         SATURATED ZONE =          -4633.20

 OVERALL BUDGET ERROR =         422653.86           BUDGET ERROR =              0.69


  PERCENT DISCREPANCY =              0.29    PERCENT DISCREPANCY =              0.01



1
 SUMMARY VOLUMETRIC BUDGET FOR GSFLOW 
 DATE: 10 29 1995              CUMULATIVE TIME STEP:      29
 MODFLOW STRESS PERIOD     62     CURRENT TIME STEP:    1855     ITERATIONS:      14

 -----------------------------------------------------------------------------------

   CUMULATIVE VOLUMES               L**3   RATES FOR THIS TIME STEP           L**3/T
   ------------------                      ------------------------

                                     IN                                         IN
                                     --                                         --
        PRECIPITATION =        1.3351D+08          PRECIPITATION =                  
           STREAMFLOW =                               STREAMFLOW =                  
     GW BOUNDARY FLOW =           5842.05       GW BOUNDARY FLOW =              4.14


                                    OUT                                        OUT
                                    ---                                        ---
   EVAPOTRANSPIRATION =        7.4918D+07     EVAPOTRANSPIRATION =          11331.07
           STREAMFLOW =        7.2427D+07             STREAMFLOW =           7492.28
     GW BOUNDARY FLOW =          52468.87       GW BOUNDARY FLOW =             24.09

   INFLOWS - OUTFLOWS =       -1.3883D+07     INFLOWS - OUTFLOWS =         -18843.30
             --------                                   --------

 TOTAL STORAGE CHANGE =       -1.4306D+07         STORAGE CHANGE =         -18836.84
       --------------                             --------------
         LAND SURFACE =           9254.99           LAND SURFACE =           -359.13
            SOIL ZONE =         138094.86              SOIL ZONE =          -5038.70
     UNSATURATED ZONE =        -546016.72       UNSATURATED ZONE =          -6235.88
       SATURATED ZONE =       -1.3908D+07         SATURATED ZONE =          -7203.80

 OVERALL BUDGET ERROR =         422627.02           BUDGET ERROR =             -6.46


  PERCENT DISCREPANCY =              0.29    PERCENT DISCREPANCY =             -0.03



 Number of time steps:   1857;  Number of non-convergence:   0
 MF iterations:         11852;  SZ iterations:           11830
 Average MF iterations:  6.38;  Average SZ iterations:    6.37
 Maximum MF iterations:    72;  Maximum SZ iterations:      50

mxsziter reached: 1

MF iteration distribution:      0    0   26  200  318  469  490  256   64   16
                                3    2    3    2    1    2    1    0    0    0
                                0    0    0    1    0    0    0    0    1    0
                                0    0    0    0    0    0    0    0    0    0
                                0    0    1    0    0    0    0    0    0    0
                                0    0    0    0    0    0    0    0    0    0
                                0    0    0    0    0    0    0    0    0    0
                                0    1    0    0    0    0    0    0    0    0

SZ computation distribution:    0    0   26  200  318  469  490  256   64   16
                                3    2    3    2    1    2    1    0    0    0
                                0    0    0    1    0    0    0    0    1    0
                                0    0    0    0    0    0    0    0    0    0
                                0    0    1    0    0    0    0    0    0    1
                                0    0    0    0    0    0    0    0    0    0
                                0    0    0    0    0    0    0    0    0    0
                                0    0    0    0    0    0    0    0    0    0

