1
 SUMMARY VOLUMETRIC BUDGET FOR GSFLOW 
 DATE: 10 07 1990              CUMULATIVE TIME STEP:       7
 MODFLOW STRESS PERIOD      2     CURRENT TIME STEP:       7     ITERATIONS:       7

 -----------------------------------------------------------------------------------

   CUMULATIVE VOLUMES               L**3   RATES FOR THIS TIME STEP           L**3/T
   ------------------                      ------------------------

                                     IN                                         IN
                                     --                                         --
        PRECIPITATION =                            PRECIPITATION =                  
           STREAMFLOW =                               STREAMFLOW =                  
     GW BOUNDARY FLOW =                         GW BOUNDARY FLOW =                  


                                    OUT                                        OUT
                                    ---                                        ---
   EVAPOTRANSPIRATION =         381260.01     EVAPOTRANSPIRATION =          12556.96
           STREAMFLOW =          45701.28             STREAMFLOW =           8118.57
     GW BOUNDARY FLOW =            252.78       GW BOUNDARY FLOW =             36.30

   INFLOWS - OUTFLOWS =        -427214.06     INFLOWS - OUTFLOWS =         -20711.83
             --------                                   --------

 TOTAL STORAGE CHANGE =        -425749.32         STORAGE CHANGE =         -20683.58
       --------------                             --------------
         LAND SURFACE =                             LAND SURFACE =                  
            SOIL ZONE =         -33202.27              SOIL ZONE =          -1000.83
     UNSATURATED ZONE =        -499638.97       UNSATURATED ZONE =         -34044.85
       SATURATED ZONE =         107091.92         SATURATED ZONE =          14362.10

 OVERALL BUDGET ERROR =          -1464.74           BUDGET ERROR =            -28.25


  PERCENT DISCREPANCY =             -0.34    PERCENT DISCREPANCY =             -0.14



1
 SUMMARY VOLUMETRIC BUDGET FOR GSFLOW 
 DATE: 10 14 1990              CUMULATIVE TIME STEP:      14
 MODFLOW STRESS PERIOD      2     CURRENT TIME STEP:      14     ITERATIONS:       6

 -----------------------------------------------------------------------------------

   CUMULATIVE VOLUMES               L**3   RATES FOR THIS TIME STEP           L**3/T
   ------------------                      ------------------------

                                     IN                                         IN
                                     --                                         --
        PRECIPITATION =                            PRECIPITATION =                  
           STREAMFLOW =                               STREAMFLOW =                  
     GW BOUNDARY FLOW =                         GW BOUNDARY FLOW =                  


                                    OUT                                        OUT
                                    ---                                        ---
   EVAPOTRANSPIRATION =         659579.95     EVAPOTRANSPIRATION =          42718.65
           STREAMFLOW =         100510.97             STREAMFLOW =           7415.76
     GW BOUNDARY FLOW =            506.62       GW BOUNDARY FLOW =             36.24

   INFLOWS - OUTFLOWS =        -760597.54     INFLOWS - OUTFLOWS =         -50170.65
             --------                                   --------

 TOTAL STORAGE CHANGE =        -758853.64         STORAGE CHANGE =         -50150.62
       --------------                             --------------
         LAND SURFACE =                             LAND SURFACE =                  
            SOIL ZONE =         -57900.28              SOIL ZONE =          -4412.68
     UNSATURATED ZONE =        -873653.89       UNSATURATED ZONE =         -52585.49
       SATURATED ZONE =         172700.53         SATURATED ZONE =           6847.56

 OVERALL BUDGET ERROR =          -1743.90           BUDGET ERROR =            -20.03


  PERCENT DISCREPANCY =             -0.23    PERCENT DISCREPANCY =             -0.04



1
 SUMMARY VOLUMETRIC BUDGET FOR GSFLOW 
 DATE: 10 21 1990              CUMULATIVE TIME STEP:      21
 MODFLOW STRESS PERIOD      2     CURRENT TIME STEP:      21     ITERATIONS:       6

 -----------------------------------------------------------------------------------

   CUMULATIVE VOLUMES               L**3   RATES FOR THIS TIME STEP           L**3/T
   ------------------                      ------------------------

                                     IN                                         IN
                                     --                                         --
        PRECIPITATION =         188432.87          PRECIPITATION =                  
           STREAMFLOW =                               STREAMFLOW =                  
     GW BOUNDARY FLOW =                         GW BOUNDARY FLOW =                  


                                    OUT                                        OUT
                                    ---                                        ---
   EVAPOTRANSPIRATION =         801944.84     EVAPOTRANSPIRATION =          37120.35
           STREAMFLOW =         163536.14             STREAMFLOW =          10140.36
     GW BOUNDARY FLOW =            760.81       GW BOUNDARY FLOW =             36.37

   INFLOWS - OUTFLOWS =        -777808.91     INFLOWS - OUTFLOWS =         -47297.08
             --------                                   --------

 TOTAL STORAGE CHANGE =        -777257.75         STORAGE CHANGE =         -47301.40
       --------------                             --------------
         LAND SURFACE =          15977.62           LAND SURFACE =         -34861.64
            SOIL ZONE =          55613.06              SOIL ZONE =          -1274.57
     UNSATURATED ZONE =       -1085760.99       UNSATURATED ZONE =         -21901.65
       SATURATED ZONE =         236912.56         SATURATED ZONE =          10736.46

 OVERALL BUDGET ERROR =           -551.17           BUDGET ERROR =              4.32


  PERCENT DISCREPANCY =             -0.06    PERCENT DISCREPANCY =              0.01



1
 SUMMARY VOLUMETRIC BUDGET FOR GSFLOW 
 DATE: 10 28 1990              CUMULATIVE TIME STEP:      28
 MODFLOW STRESS PERIOD      2     CURRENT TIME STEP:      28     ITERATIONS:       7

 -----------------------------------------------------------------------------------

   CUMULATIVE VOLUMES               L**3   RATES FOR THIS TIME STEP           L**3/T
   ------------------                      ------------------------

                                     IN                                         IN
                                     --                                         --
        PRECIPITATION =         188432.87          PRECIPITATION =                  
           STREAMFLOW =                               STREAMFLOW =                  
     GW BOUNDARY FLOW =                         GW BOUNDARY FLOW =                  


                                    OUT                                        OUT
                                    ---                                        ---
   EVAPOTRANSPIRATION =         927256.92     EVAPOTRANSPIRATION =          11164.72
           STREAMFLOW =         225168.56             STREAMFLOW =           8987.43
     GW BOUNDARY FLOW =           1014.00       GW BOUNDARY FLOW =             36.13

   INFLOWS - OUTFLOWS =        -965006.61     INFLOWS - OUTFLOWS =         -20188.29
             --------                                   --------

 TOTAL STORAGE CHANGE =        -964417.98         STORAGE CHANGE =         -20183.40
       --------------                             --------------
         LAND SURFACE =                             LAND SURFACE =                  
            SOIL ZONE =          26542.65              SOIL ZONE =          -3289.00
     UNSATURATED ZONE =       -1270417.22       UNSATURATED ZONE =         -23185.84
       SATURATED ZONE =         279456.59         SATURATED ZONE =           6291.43

 OVERALL BUDGET ERROR =           -588.63           BUDGET ERROR =             -4.88


  PERCENT DISCREPANCY =             -0.05    PERCENT DISCREPANCY =             -0.02



1
 SUMMARY VOLUMETRIC BUDGET FOR GSFLOW 
 DATE: 11 04 1990              CUMULATIVE TIME STEP:       4
 MODFLOW STRESS PERIOD      3     CURRENT TIME STEP:      35     ITERATIONS:       6

 -----------------------------------------------------------------------------------

   CUMULATIVE VOLUMES               L**3   RATES FOR THIS TIME STEP           L**3/T
   ------------------                      ------------------------

                                     IN                                         IN
                                     --                                         --
        PRECIPITATION =         703113.06          PRECIPITATION =                  
           STREAMFLOW =                               STREAMFLOW =                  
     GW BOUNDARY FLOW =                         GW BOUNDARY FLOW =                  


                                    OUT                                        OUT
                                    ---                                        ---
   EVAPOTRANSPIRATION =         986875.39     EVAPOTRANSPIRATION =          26063.10
           STREAMFLOW =         296309.61             STREAMFLOW =          10663.98
     GW BOUNDARY FLOW =           1267.06       GW BOUNDARY FLOW =             36.14

   INFLOWS - OUTFLOWS =        -581339.00     INFLOWS - OUTFLOWS =         -36763.21
             --------                                   --------

 TOTAL STORAGE CHANGE =        -585639.37         STORAGE CHANGE =         -38023.01
       --------------                             --------------
         LAND SURFACE =          71009.70           LAND SURFACE =         -84159.07
            SOIL ZONE =         419017.86              SOIL ZONE =          56793.25
     UNSATURATED ZONE =       -1416329.66       UNSATURATED ZONE =         -20126.54
       SATURATED ZONE =         340662.72         SATURATED ZONE =           9469.35

 OVERALL BUDGET ERROR =           4300.37           BUDGET ERROR =           1259.80

  ***WARNING, FLUX RATES OFF > 3%

  PERCENT DISCREPANCY =              0.33    PERCENT DISCREPANCY =              3.37



1
 SUMMARY VOLUMETRIC BUDGET FOR GSFLOW 
 DATE: 11 11 1990              CUMULATIVE TIME STEP:      11
 MODFLOW STRESS PERIOD      3     CURRENT TIME STEP:      42     ITERATIONS:       6

 -----------------------------------------------------------------------------------

   CUMULATIVE VOLUMES               L**3   RATES FOR THIS TIME STEP           L**3/T
   ------------------                      ------------------------

                                     IN                                         IN
                                     --                                         --
        PRECIPITATION =         703113.06          PRECIPITATION =                  
           STREAMFLOW =                               STREAMFLOW =                  
     GW BOUNDARY FLOW =                         GW BOUNDARY FLOW =                  


                                    OUT                                        OUT
                                    ---                                        ---
   EVAPOTRANSPIRATION =        1060186.53     EVAPOTRANSPIRATION =          12360.61
           STREAMFLOW =         367398.72             STREAMFLOW =           9645.11
     GW BOUNDARY FLOW =           1519.16       GW BOUNDARY FLOW =             35.92

   INFLOWS - OUTFLOWS =        -725991.36     INFLOWS - OUTFLOWS =         -22041.64
             --------                                   --------

 TOTAL STORAGE CHANGE =        -730406.90         STORAGE CHANGE =         -22031.71
       --------------                             --------------
         LAND SURFACE =            295.92           LAND SURFACE =           -859.89
            SOIL ZONE =         435365.06              SOIL ZONE =          -6110.51
     UNSATURATED ZONE =       -1556532.71       UNSATURATED ZONE =         -20023.58
       SATURATED ZONE =         390464.80         SATURATED ZONE =           4962.26

 OVERALL BUDGET ERROR =           4415.54           BUDGET ERROR =             -9.93


  PERCENT DISCREPANCY =              0.31    PERCENT DISCREPANCY =             -0.05



1
 SUMMARY VOLUMETRIC BUDGET FOR GSFLOW 
 DATE: 11 18 1990              CUMULATIVE TIME STEP:      18
 MODFLOW STRESS PERIOD      3     CURRENT TIME STEP:      49     ITERATIONS:       6

 -----------------------------------------------------------------------------------

   CUMULATIVE VOLUMES               L**3   RATES FOR THIS TIME STEP           L**3/T
   ------------------                      ------------------------

                                     IN                                         IN
                                     --                                         --
        PRECIPITATION =         747883.35          PRECIPITATION =                  
           STREAMFLOW =                               STREAMFLOW =                  
     GW BOUNDARY FLOW =                         GW BOUNDARY FLOW =                  


                                    OUT                                        OUT
                                    ---                                        ---
   EVAPOTRANSPIRATION =        1129632.84     EVAPOTRANSPIRATION =           5430.97
           STREAMFLOW =         439262.42             STREAMFLOW =          10698.63
     GW BOUNDARY FLOW =           1770.48       GW BOUNDARY FLOW =             35.88

   INFLOWS - OUTFLOWS =        -822782.40     INFLOWS - OUTFLOWS =         -16165.48
             --------                                   --------

 TOTAL STORAGE CHANGE =        -827179.86         STORAGE CHANGE =         -16168.94
       --------------                             --------------
         LAND SURFACE =          10077.61           LAND SURFACE =          -4199.79
            SOIL ZONE =         417508.52              SOIL ZONE =           -682.13
     UNSATURATED ZONE =       -1690446.77       UNSATURATED ZONE =         -18694.40
       SATURATED ZONE =         435680.74         SATURATED ZONE =           7407.37

 OVERALL BUDGET ERROR =           4397.47           BUDGET ERROR =              3.46


  PERCENT DISCREPANCY =              0.28    PERCENT DISCREPANCY =              0.02



1
 SUMMARY VOLUMETRIC BUDGET FOR GSFLOW 
 DATE: 11 25 1990              CUMULATIVE TIME STEP:      25
 MODFLOW STRESS PERIOD      3     CURRENT TIME STEP:      56     ITERATIONS:       6

 -----------------------------------------------------------------------------------

   CUMULATIVE VOLUMES               L**3   RATES FOR THIS TIME STEP           L**3/T
   ------------------                      ------------------------

                                     IN                                         IN
                                     --                                         --
        PRECIPITATION =        1009043.38          PRECIPITATION =         186542.88
           STREAMFLOW =                               STREAMFLOW =                  
     GW BOUNDARY FLOW =                         GW BOUNDARY FLOW =                  


                                    OUT                                        OUT
                                    ---                                        ---
   EVAPOTRANSPIRATION =        1190369.47     EVAPOTRANSPIRATION =           3818.06
           STREAMFLOW =         515358.33             STREAMFLOW =          10895.51
     GW BOUNDARY FLOW =           2021.43       GW BOUNDARY FLOW =             35.79

   INFLOWS - OUTFLOWS =        -698705.85     INFLOWS - OUTFLOWS =         171793.51
             --------                                   --------

 TOTAL STORAGE CHANGE =        -705187.51         STORAGE CHANGE =         169955.78
       --------------                             --------------
         LAND SURFACE =          92124.67           LAND SURFACE =          75233.82
            SOIL ZONE =         535549.76              SOIL ZONE =         106294.71
     UNSATURATED ZONE =       -1818554.69       UNSATURATED ZONE =         -17984.49
       SATURATED ZONE =         485692.68         SATURATED ZONE =           6411.75

 OVERALL BUDGET ERROR =           6481.66           BUDGET ERROR =           1837.74


  PERCENT DISCREPANCY =              0.38    PERCENT DISCREPANCY =              0.99



1
 SUMMARY VOLUMETRIC BUDGET FOR GSFLOW 
 DATE: 12 02 1990              CUMULATIVE TIME STEP:       2
 MODFLOW STRESS PERIOD      4     CURRENT TIME STEP:      63     ITERATIONS:       6

 -----------------------------------------------------------------------------------

   CUMULATIVE VOLUMES               L**3   RATES FOR THIS TIME STEP           L**3/T
   ------------------                      ------------------------

                                     IN                                         IN
                                     --                                         --
        PRECIPITATION =        1449284.55          PRECIPITATION =                  
           STREAMFLOW =                               STREAMFLOW =                  
     GW BOUNDARY FLOW =                         GW BOUNDARY FLOW =                  


                                    OUT                                        OUT
                                    ---                                        ---
   EVAPOTRANSPIRATION =        1197938.55     EVAPOTRANSPIRATION =            374.89
           STREAMFLOW =         592697.18             STREAMFLOW =          11088.22
     GW BOUNDARY FLOW =           2271.92       GW BOUNDARY FLOW =             35.77

   INFLOWS - OUTFLOWS =        -343623.09     INFLOWS - OUTFLOWS =         -11498.88
             --------                                   --------

 TOTAL STORAGE CHANGE =        -351141.29         STORAGE CHANGE =         -11500.62
       --------------                             --------------
         LAND SURFACE =         493448.43           LAND SURFACE =           -453.37
            SOIL ZONE =         566178.97              SOIL ZONE =            128.22
     UNSATURATED ZONE =       -1941855.24       UNSATURATED ZONE =         -17319.86
       SATURATED ZONE =         531086.47         SATURATED ZONE =           6144.37

 OVERALL BUDGET ERROR =           7518.19           BUDGET ERROR =              1.74


  PERCENT DISCREPANCY =              0.42    PERCENT DISCREPANCY =              0.02



1
 SUMMARY VOLUMETRIC BUDGET FOR GSFLOW 
 DATE: 12 09 1990              CUMULATIVE TIME STEP:       9
 MODFLOW STRESS PERIOD      4     CURRENT TIME STEP:      70     ITERATIONS:       6

 -----------------------------------------------------------------------------------

   CUMULATIVE VOLUMES               L**3   RATES FOR THIS TIME STEP           L**3/T
   ------------------                      ------------------------

                                     IN                                         IN
                                     --                                         --
        PRECIPITATION =        1449284.55          PRECIPITATION =                  
           STREAMFLOW =                               STREAMFLOW =                  
     GW BOUNDARY FLOW =                         GW BOUNDARY FLOW =                  


                                    OUT                                        OUT
                                    ---                                        ---
   EVAPOTRANSPIRATION =        1276428.82     EVAPOTRANSPIRATION =          14145.24
           STREAMFLOW =         670478.04             STREAMFLOW =          10902.72
     GW BOUNDARY FLOW =           2521.88       GW BOUNDARY FLOW =             35.65

   INFLOWS - OUTFLOWS =        -500144.18     INFLOWS - OUTFLOWS =         -25083.61
             --------                                   --------

 TOTAL STORAGE CHANGE =        -512014.14         STORAGE CHANGE =         -25189.02
       --------------                             --------------
         LAND SURFACE =          66382.65           LAND SURFACE =         -46525.52
            SOIL ZONE =         913823.14              SOIL ZONE =          33975.32
     UNSATURATED ZONE =       -2060091.99       UNSATURATED ZONE =         -16540.53
       SATURATED ZONE =         567871.94         SATURATED ZONE =           3901.71

 OVERALL BUDGET ERROR =          11869.95           BUDGET ERROR =            105.41


  PERCENT DISCREPANCY =              0.61    PERCENT DISCREPANCY =              0.42



1
 SUMMARY VOLUMETRIC BUDGET FOR GSFLOW 
 DATE: 12 16 1990              CUMULATIVE TIME STEP:      16
 MODFLOW STRESS PERIOD      4     CURRENT TIME STEP:      77     ITERATIONS:       6

 -----------------------------------------------------------------------------------

   CUMULATIVE VOLUMES               L**3   RATES FOR THIS TIME STEP           L**3/T
   ------------------                      ------------------------

                                     IN                                         IN
                                     --                                         --
        PRECIPITATION =        1804962.84          PRECIPITATION =                  
           STREAMFLOW =                               STREAMFLOW =                  
     GW BOUNDARY FLOW =                         GW BOUNDARY FLOW =                  


                                    OUT                                        OUT
                                    ---                                        ---
   EVAPOTRANSPIRATION =        1305019.31     EVAPOTRANSPIRATION =                  
           STREAMFLOW =         750243.42             STREAMFLOW =          11531.06
     GW BOUNDARY FLOW =           2771.29       GW BOUNDARY FLOW =             35.61

   INFLOWS - OUTFLOWS =        -253071.18     INFLOWS - OUTFLOWS =         -11566.67
             --------                                   --------

 TOTAL STORAGE CHANGE =        -267117.04         STORAGE CHANGE =         -11567.12
       --------------                             --------------
         LAND SURFACE =         256077.35           LAND SURFACE =                  
            SOIL ZONE =        1051745.53              SOIL ZONE =            -18.45
     UNSATURATED ZONE =       -2173841.46       UNSATURATED ZONE =         -16000.15
       SATURATED ZONE =         598901.38         SATURATED ZONE =           4451.46

 OVERALL BUDGET ERROR =          14045.86           BUDGET ERROR =              0.45


  PERCENT DISCREPANCY =              0.68    PERCENT DISCREPANCY =              0.00



1
 SUMMARY VOLUMETRIC BUDGET FOR GSFLOW 
 DATE: 12 23 1990              CUMULATIVE TIME STEP:      23
 MODFLOW STRESS PERIOD      4     CURRENT TIME STEP:      84     ITERATIONS:       6

 -----------------------------------------------------------------------------------

   CUMULATIVE VOLUMES               L**3   RATES FOR THIS TIME STEP           L**3/T
   ------------------                      ------------------------

                                     IN                                         IN
                                     --                                         --
        PRECIPITATION =        2276236.55          PRECIPITATION =                  
           STREAMFLOW =                               STREAMFLOW =                  
     GW BOUNDARY FLOW =              0.08       GW BOUNDARY FLOW =              0.04


                                    OUT                                        OUT
                                    ---                                        ---
   EVAPOTRANSPIRATION =        1306393.96     EVAPOTRANSPIRATION =                  
           STREAMFLOW =         831158.89             STREAMFLOW =          11581.63
     GW BOUNDARY FLOW =           3020.33       GW BOUNDARY FLOW =             35.57

   INFLOWS - OUTFLOWS =         135663.46     INFLOWS - OUTFLOWS =         -11617.16
             --------                                   --------

 TOTAL STORAGE CHANGE =         121617.58         STORAGE CHANGE =         -11616.77
       --------------                             --------------
         LAND SURFACE =         725980.65           LAND SURFACE =                  
            SOIL ZONE =        1051949.22              SOIL ZONE =             57.58
     UNSATURATED ZONE =       -2283376.65       UNSATURATED ZONE =         -15401.23
       SATURATED ZONE =         627064.16         SATURATED ZONE =           3726.87

 OVERALL BUDGET ERROR =          14045.88           BUDGET ERROR =             -0.39


  PERCENT DISCREPANCY =              0.62    PERCENT DISCREPANCY =             -0.00



1
 SUMMARY VOLUMETRIC BUDGET FOR GSFLOW 
 DATE: 12 30 1990              CUMULATIVE TIME STEP:      30
 MODFLOW STRESS PERIOD      4     CURRENT TIME STEP:      91     ITERATIONS:       5

 -----------------------------------------------------------------------------------

   CUMULATIVE VOLUMES               L**3   RATES FOR THIS TIME STEP           L**3/T
   ------------------                      ------------------------

                                     IN                                         IN
                                     --                                         --
        PRECIPITATION =        2276236.55          PRECIPITATION =                  
           STREAMFLOW =                               STREAMFLOW =                  
     GW BOUNDARY FLOW =              0.77       GW BOUNDARY FLOW =              0.14


                                    OUT                                        OUT
                                    ---                                        ---
   EVAPOTRANSPIRATION =        1307146.60     EVAPOTRANSPIRATION =                  
           STREAMFLOW =         912473.87             STREAMFLOW =          11644.18
     GW BOUNDARY FLOW =           3269.44       GW BOUNDARY FLOW =             35.60

   INFLOWS - OUTFLOWS =          53347.41     INFLOWS - OUTFLOWS =         -11679.64
             --------                                   --------

 TOTAL STORAGE CHANGE =          39312.19         STORAGE CHANGE =         -11677.17
       --------------                             --------------
         LAND SURFACE =         725228.16           LAND SURFACE =                  
            SOIL ZONE =        1052542.51              SOIL ZONE =            102.84
     UNSATURATED ZONE =       -2389026.09       UNSATURATED ZONE =         -14860.33
       SATURATED ZONE =         650567.38         SATURATED ZONE =           3080.31

 OVERALL BUDGET ERROR =          14035.22           BUDGET ERROR =             -2.47


  PERCENT DISCREPANCY =              0.62    PERCENT DISCREPANCY =             -0.02



1
 SUMMARY VOLUMETRIC BUDGET FOR GSFLOW 
 DATE: 01 06 1991              CUMULATIVE TIME STEP:       6
 MODFLOW STRESS PERIOD      5     CURRENT TIME STEP:      98     ITERATIONS:       5

 -----------------------------------------------------------------------------------

   CUMULATIVE VOLUMES               L**3   RATES FOR THIS TIME STEP           L**3/T
   ------------------                      ------------------------

                                     IN                                         IN
                                     --                                         --
        PRECIPITATION =        2276236.55          PRECIPITATION =                  
           STREAMFLOW =                               STREAMFLOW =                  
     GW BOUNDARY FLOW =              2.09       GW BOUNDARY FLOW =              0.22


                                    OUT                                        OUT
                                    ---                                        ---
   EVAPOTRANSPIRATION =        1330424.28     EVAPOTRANSPIRATION =           2584.60
           STREAMFLOW =         994403.73             STREAMFLOW =          11742.76
     GW BOUNDARY FLOW =           3519.33       GW BOUNDARY FLOW =             35.75

   INFLOWS - OUTFLOWS =         -52108.69     INFLOWS - OUTFLOWS =         -14362.88
             --------                                   --------

 TOTAL STORAGE CHANGE =         -68514.71         STORAGE CHANGE =         -14475.17
       --------------                             --------------
         LAND SURFACE =         620283.29           LAND SURFACE =          -6112.33
            SOIL ZONE =        1132529.99              SOIL ZONE =           3508.92
     UNSATURATED ZONE =       -2490705.83       UNSATURATED ZONE =         -14287.64
       SATURATED ZONE =         669377.56         SATURATED ZONE =           2415.88

 OVERALL BUDGET ERROR =          16406.02           BUDGET ERROR =            112.28


  PERCENT DISCREPANCY =              0.70    PERCENT DISCREPANCY =              0.78



1
 SUMMARY VOLUMETRIC BUDGET FOR GSFLOW 
 DATE: 01 13 1991              CUMULATIVE TIME STEP:      13
 MODFLOW STRESS PERIOD      5     CURRENT TIME STEP:     105     ITERATIONS:       6

 -----------------------------------------------------------------------------------

   CUMULATIVE VOLUMES               L**3   RATES FOR THIS TIME STEP           L**3/T
   ------------------                      ------------------------

                                     IN                                         IN
                                     --                                         --
        PRECIPITATION =        2596386.94          PRECIPITATION =          10327.43
           STREAMFLOW =                               STREAMFLOW =                  
     GW BOUNDARY FLOW =              4.02       GW BOUNDARY FLOW =              0.31


                                    OUT                                        OUT
                                    ---                                        ---
   EVAPOTRANSPIRATION =        1391001.58     EVAPOTRANSPIRATION =          17385.54
           STREAMFLOW =        1076764.64             STREAMFLOW =          11739.84
     GW BOUNDARY FLOW =           3769.55       GW BOUNDARY FLOW =             35.73

   INFLOWS - OUTFLOWS =         124855.18     INFLOWS - OUTFLOWS =         -18833.37
             --------                                   --------

 TOTAL STORAGE CHANGE =         103553.17         STORAGE CHANGE =         -20095.34
       --------------                             --------------
         LAND SURFACE =         586364.85           LAND SURFACE =        -135127.18
            SOIL ZONE =        1422880.01              SOIL ZONE =         127624.32
     UNSATURATED ZONE =       -2588338.51       UNSATURATED ZONE =         -13754.59
       SATURATED ZONE =         682646.49         SATURATED ZONE =           1162.09

 OVERALL BUDGET ERROR =          21302.01           BUDGET ERROR =           1261.97

  ***WARNING, FLUX RATES OFF > 3%

  PERCENT DISCREPANCY =              0.82    PERCENT DISCREPANCY =              4.24



1
 SUMMARY VOLUMETRIC BUDGET FOR GSFLOW 
 DATE: 01 20 1991              CUMULATIVE TIME STEP:      20
 MODFLOW STRESS PERIOD      5     CURRENT TIME STEP:     112     ITERATIONS:       5

 -----------------------------------------------------------------------------------

   CUMULATIVE VOLUMES               L**3   RATES FOR THIS TIME STEP           L**3/T
   ------------------                      ------------------------

                                     IN                                         IN
                                     --                                         --
        PRECIPITATION =        2596386.94          PRECIPITATION =                  
           STREAMFLOW =                               STREAMFLOW =                  
     GW BOUNDARY FLOW =              6.55       GW BOUNDARY FLOW =              0.40


                                    OUT                                        OUT
                                    ---                                        ---
   EVAPOTRANSPIRATION =        1461669.78     EVAPOTRANSPIRATION =           1892.51
           STREAMFLOW =        1159970.78             STREAMFLOW =          11904.92
     GW BOUNDARY FLOW =           4019.77       GW BOUNDARY FLOW =             35.74

   INFLOWS - OUTFLOWS =         -29266.84     INFLOWS - OUTFLOWS =         -13832.77
             --------                                   --------

 TOTAL STORAGE CHANGE =         -51481.96         STORAGE CHANGE =         -13824.26
       --------------                             --------------
         LAND SURFACE =         422210.58           LAND SURFACE =           -295.67
            SOIL ZONE =        1516064.18              SOIL ZONE =          -1539.57
     UNSATURATED ZONE =       -2682076.96       UNSATURATED ZONE =         -13168.12
       SATURATED ZONE =         692319.85         SATURATED ZONE =           1179.08

 OVERALL BUDGET ERROR =          22215.13           BUDGET ERROR =             -8.51


  PERCENT DISCREPANCY =              0.84    PERCENT DISCREPANCY =             -0.06



1
 SUMMARY VOLUMETRIC BUDGET FOR GSFLOW 
 DATE: 01 27 1991              CUMULATIVE TIME STEP:      27
 MODFLOW STRESS PERIOD      5     CURRENT TIME STEP:     119     ITERATIONS:       5

 -----------------------------------------------------------------------------------

   CUMULATIVE VOLUMES               L**3   RATES FOR THIS TIME STEP           L**3/T
   ------------------                      ------------------------

                                     IN                                         IN
                                     --                                         --
        PRECIPITATION =        2596386.94          PRECIPITATION =                  
           STREAMFLOW =                               STREAMFLOW =                  
     GW BOUNDARY FLOW =              9.65       GW BOUNDARY FLOW =              0.48


                                    OUT                                        OUT
                                    ---                                        ---
   EVAPOTRANSPIRATION =        1483723.94     EVAPOTRANSPIRATION =           1239.75
           STREAMFLOW =        1243251.31             STREAMFLOW =          11923.23
     GW BOUNDARY FLOW =           4269.94       GW BOUNDARY FLOW =             35.74

   INFLOWS - OUTFLOWS =        -134848.59     INFLOWS - OUTFLOWS =         -13198.25
             --------                                   --------

 TOTAL STORAGE CHANGE =        -157210.90         STORAGE CHANGE =         -13182.75
       --------------                             --------------
         LAND SURFACE =         394226.38           LAND SURFACE =           -109.80
            SOIL ZONE =        1522717.69              SOIL ZONE =          -1021.63
     UNSATURATED ZONE =       -2772279.74       UNSATURATED ZONE =         -12667.79
       SATURATED ZONE =         698124.33         SATURATED ZONE =            616.47

 OVERALL BUDGET ERROR =          22362.31           BUDGET ERROR =            -15.49


  PERCENT DISCREPANCY =              0.82    PERCENT DISCREPANCY =             -0.12



1
 SUMMARY VOLUMETRIC BUDGET FOR GSFLOW 
 DATE: 02 03 1991              CUMULATIVE TIME STEP:       3
 MODFLOW STRESS PERIOD      6     CURRENT TIME STEP:     126     ITERATIONS:       6

 -----------------------------------------------------------------------------------

   CUMULATIVE VOLUMES               L**3   RATES FOR THIS TIME STEP           L**3/T
   ------------------                      ------------------------

                                     IN                                         IN
                                     --                                         --
        PRECIPITATION =        3228422.31          PRECIPITATION =          30459.53
           STREAMFLOW =                               STREAMFLOW =                  
     GW BOUNDARY FLOW =             13.31       GW BOUNDARY FLOW =              0.55


                                    OUT                                        OUT
                                    ---                                        ---
   EVAPOTRANSPIRATION =        1586081.16     EVAPOTRANSPIRATION =          20507.87
           STREAMFLOW =        1328054.19             STREAMFLOW =          12251.30
     GW BOUNDARY FLOW =           4520.04       GW BOUNDARY FLOW =             35.74

   INFLOWS - OUTFLOWS =         309780.23     INFLOWS - OUTFLOWS =          -2334.82
             --------                                   --------

 TOTAL STORAGE CHANGE =         280492.92         STORAGE CHANGE =          -2586.51
       --------------                             --------------
         LAND SURFACE =         184727.70           LAND SURFACE =         -28670.24
            SOIL ZONE =        2255615.70              SOIL ZONE =          38309.21
     UNSATURATED ZONE =       -2859235.33       UNSATURATED ZONE =         -12269.89
       SATURATED ZONE =         699384.34         SATURATED ZONE =             44.41

 OVERALL BUDGET ERROR =          29287.32           BUDGET ERROR =            251.69


  PERCENT DISCREPANCY =              0.91    PERCENT DISCREPANCY =              0.76



1
 SUMMARY VOLUMETRIC BUDGET FOR GSFLOW 
 DATE: 02 10 1991              CUMULATIVE TIME STEP:      10
 MODFLOW STRESS PERIOD      6     CURRENT TIME STEP:     133     ITERATIONS:       5

 -----------------------------------------------------------------------------------

   CUMULATIVE VOLUMES               L**3   RATES FOR THIS TIME STEP           L**3/T
   ------------------                      ------------------------

                                     IN                                         IN
                                     --                                         --
        PRECIPITATION =        3510173.01          PRECIPITATION =                  
           STREAMFLOW =                               STREAMFLOW =                  
     GW BOUNDARY FLOW =             17.49       GW BOUNDARY FLOW =              0.63


                                    OUT                                        OUT
                                    ---                                        ---
   EVAPOTRANSPIRATION =        1752959.42     EVAPOTRANSPIRATION =          25852.40
           STREAMFLOW =        1414146.32             STREAMFLOW =          12176.22
     GW BOUNDARY FLOW =           4770.12       GW BOUNDARY FLOW =             35.72

   INFLOWS - OUTFLOWS =         338314.65     INFLOWS - OUTFLOWS =         -38063.71
             --------                                   --------

 TOTAL STORAGE CHANGE =         306206.15         STORAGE CHANGE =         -37998.09
       --------------                             --------------
         LAND SURFACE =          90050.80           LAND SURFACE =         -12330.62
            SOIL ZONE =        2461160.84              SOIL ZONE =         -13437.09
     UNSATURATED ZONE =       -2942723.01       UNSATURATED ZONE =         -11761.65
       SATURATED ZONE =         697716.93         SATURATED ZONE =           -468.74

 OVERALL BUDGET ERROR =          32108.50           BUDGET ERROR =            -65.63


  PERCENT DISCREPANCY =              0.92    PERCENT DISCREPANCY =             -0.17



1
 SUMMARY VOLUMETRIC BUDGET FOR GSFLOW 
 DATE: 02 17 1991              CUMULATIVE TIME STEP:      17
 MODFLOW STRESS PERIOD      6     CURRENT TIME STEP:     140     ITERATIONS:       5

 -----------------------------------------------------------------------------------

   CUMULATIVE VOLUMES               L**3   RATES FOR THIS TIME STEP           L**3/T
   ------------------                      ------------------------

                                     IN                                         IN
                                     --                                         --
        PRECIPITATION =        3510173.01          PRECIPITATION =                  
           STREAMFLOW =                               STREAMFLOW =                  
     GW BOUNDARY FLOW =             22.16       GW BOUNDARY FLOW =              0.70


                                    OUT                                        OUT
                                    ---                                        ---
   EVAPOTRANSPIRATION =        1996450.66     EVAPOTRANSPIRATION =          23256.88
           STREAMFLOW =        1498957.20             STREAMFLOW =          12111.28
     GW BOUNDARY FLOW =           5020.06       GW BOUNDARY FLOW =             35.68

   INFLOWS - OUTFLOWS =           9767.25     INFLOWS - OUTFLOWS =         -35403.14
             --------                                   --------

 TOTAL STORAGE CHANGE =         -21602.37         STORAGE CHANGE =         -35309.70
       --------------                             --------------
         LAND SURFACE =          18163.73           LAND SURFACE =          -1654.25
            SOIL ZONE =        2290642.54              SOIL ZONE =         -21553.21
     UNSATURATED ZONE =       -3022672.95       UNSATURATED ZONE =         -11116.20
       SATURATED ZONE =         692263.62         SATURATED ZONE =           -986.05

 OVERALL BUDGET ERROR =          31369.62           BUDGET ERROR =            -93.44


  PERCENT DISCREPANCY =              0.89    PERCENT DISCREPANCY =             -0.26



1
 SUMMARY VOLUMETRIC BUDGET FOR GSFLOW 
 DATE: 02 24 1991              CUMULATIVE TIME STEP:      24
 MODFLOW STRESS PERIOD      6     CURRENT TIME STEP:     147     ITERATIONS:       5

 -----------------------------------------------------------------------------------

   CUMULATIVE VOLUMES               L**3   RATES FOR THIS TIME STEP           L**3/T
   ------------------                      ------------------------

                                     IN                                         IN
                                     --                                         --
        PRECIPITATION =        3510173.01          PRECIPITATION =                  
           STREAMFLOW =                               STREAMFLOW =                  
     GW BOUNDARY FLOW =             27.31       GW BOUNDARY FLOW =              0.76


                                    OUT                                        OUT
                                    ---                                        ---
   EVAPOTRANSPIRATION =        2212612.66     EVAPOTRANSPIRATION =          21963.26
           STREAMFLOW =        1583075.17             STREAMFLOW =          11975.32
     GW BOUNDARY FLOW =           5268.98       GW BOUNDARY FLOW =             35.48

   INFLOWS - OUTFLOWS =        -290756.50     INFLOWS - OUTFLOWS =         -33973.30
             --------                                   --------

 TOTAL STORAGE CHANGE =        -321312.96         STORAGE CHANGE =         -33885.07
       --------------                             --------------
         LAND SURFACE =           6686.42           LAND SURFACE =           -239.07
            SOIL ZONE =        2087773.07              SOIL ZONE =         -21383.51
     UNSATURATED ZONE =       -3098750.43       UNSATURATED ZONE =         -10700.02
       SATURATED ZONE =         682977.21         SATURATED ZONE =          -1562.49

 OVERALL BUDGET ERROR =          30556.47           BUDGET ERROR =            -88.23


  PERCENT DISCREPANCY =              0.80    PERCENT DISCREPANCY =             -0.26



1
 SUMMARY VOLUMETRIC BUDGET FOR GSFLOW 
 DATE: 03 03 1991              CUMULATIVE TIME STEP:       3
 MODFLOW STRESS PERIOD      7     CURRENT TIME STEP:     154     ITERATIONS:       5

 -----------------------------------------------------------------------------------

   CUMULATIVE VOLUMES               L**3   RATES FOR THIS TIME STEP           L**3/T
   ------------------                      ------------------------

                                     IN                                         IN
                                     --                                         --
        PRECIPITATION =        6220189.63          PRECIPITATION =        1243187.24
           STREAMFLOW =                               STREAMFLOW =                  
     GW BOUNDARY FLOW =             32.91       GW BOUNDARY FLOW =              0.83


                                    OUT                                        OUT
                                    ---                                        ---
   EVAPOTRANSPIRATION =        2364786.30     EVAPOTRANSPIRATION =           8000.46
           STREAMFLOW =        1666634.59             STREAMFLOW =          12230.09
     GW BOUNDARY FLOW =           5516.68       GW BOUNDARY FLOW =             35.33

   INFLOWS - OUTFLOWS =        2183284.98     INFLOWS - OUTFLOWS =        1222922.18
             --------                                   --------

 TOTAL STORAGE CHANGE =        2146597.59         STORAGE CHANGE =        1216262.47
       --------------                             --------------
         LAND SURFACE =        2505904.36           LAND SURFACE =        1046748.88
            SOIL ZONE =        2144236.84              SOIL ZONE =         182174.16
     UNSATURATED ZONE =       -3171831.37       UNSATURATED ZONE =         -10285.63
       SATURATED ZONE =         668286.91         SATURATED ZONE =          -2374.96

 OVERALL BUDGET ERROR =          36687.39           BUDGET ERROR =           6659.71


  PERCENT DISCREPANCY =              0.59    PERCENT DISCREPANCY =              0.54



1
 SUMMARY VOLUMETRIC BUDGET FOR GSFLOW 
 DATE: 03 10 1991              CUMULATIVE TIME STEP:      10
 MODFLOW STRESS PERIOD      7     CURRENT TIME STEP:     161     ITERATIONS:       6

 -----------------------------------------------------------------------------------

   CUMULATIVE VOLUMES               L**3   RATES FOR THIS TIME STEP           L**3/T
   ------------------                      ------------------------

                                     IN                                         IN
                                     --                                         --
        PRECIPITATION =        8746030.42          PRECIPITATION =          32888.55
           STREAMFLOW =                               STREAMFLOW =                  
     GW BOUNDARY FLOW =             38.95       GW BOUNDARY FLOW =              0.89


                                    OUT                                        OUT
                                    ---                                        ---
   EVAPOTRANSPIRATION =        2423918.73     EVAPOTRANSPIRATION =           8408.63
           STREAMFLOW =        1800371.44             STREAMFLOW =          18242.08
     GW BOUNDARY FLOW =           5764.73       GW BOUNDARY FLOW =             35.36

   INFLOWS - OUTFLOWS =        4516014.47     INFLOWS - OUTFLOWS =           6203.37
             --------                                   --------

 TOTAL STORAGE CHANGE =        4447536.64         STORAGE CHANGE =           5404.55
       --------------                             --------------
         LAND SURFACE =        3082070.49           LAND SURFACE =            535.10
            SOIL ZONE =        3919709.20              SOIL ZONE =          11469.78
     UNSATURATED ZONE =       -3214621.51       UNSATURATED ZONE =          -5262.81
       SATURATED ZONE =         660377.40         SATURATED ZONE =          -1337.55

 OVERALL BUDGET ERROR =          68477.83           BUDGET ERROR =            798.81


  PERCENT DISCREPANCY =              0.79    PERCENT DISCREPANCY =              2.46



1
 SUMMARY VOLUMETRIC BUDGET FOR GSFLOW 
 DATE: 03 17 1991              CUMULATIVE TIME STEP:      17
 MODFLOW STRESS PERIOD      7     CURRENT TIME STEP:     168     ITERATIONS:       5

 -----------------------------------------------------------------------------------

   CUMULATIVE VOLUMES               L**3   RATES FOR THIS TIME STEP           L**3/T
   ------------------                      ------------------------

                                     IN                                         IN
                                     --                                         --
        PRECIPITATION =        9897129.71          PRECIPITATION =         157865.04
           STREAMFLOW =                               STREAMFLOW =                  
     GW BOUNDARY FLOW =             45.40       GW BOUNDARY FLOW =              0.95


                                    OUT                                        OUT
                                    ---                                        ---
   EVAPOTRANSPIRATION =        2449595.21     EVAPOTRANSPIRATION =           7593.05
           STREAMFLOW =        1919268.93             STREAMFLOW =          16502.92
     GW BOUNDARY FLOW =           6011.50       GW BOUNDARY FLOW =             35.18

   INFLOWS - OUTFLOWS =        5522299.47     INFLOWS - OUTFLOWS =         133734.84
             --------                                   --------

 TOTAL STORAGE CHANGE =        5454042.75         STORAGE CHANGE =         133790.89
       --------------                             --------------
         LAND SURFACE =        4232943.09           LAND SURFACE =         157846.09
            SOIL ZONE =        3826233.16              SOIL ZONE =         -16375.46
     UNSATURATED ZONE =       -3253295.28       UNSATURATED ZONE =          -5652.35
       SATURATED ZONE =         648160.52         SATURATED ZONE =          -2027.42

 OVERALL BUDGET ERROR =          68256.72           BUDGET ERROR =            -56.05


  PERCENT DISCREPANCY =              0.69    PERCENT DISCREPANCY =             -0.04



1
 SUMMARY VOLUMETRIC BUDGET FOR GSFLOW 
 DATE: 03 24 1991              CUMULATIVE TIME STEP:      24
 MODFLOW STRESS PERIOD      7     CURRENT TIME STEP:     175     ITERATIONS:       5

 -----------------------------------------------------------------------------------

   CUMULATIVE VOLUMES               L**3   RATES FOR THIS TIME STEP           L**3/T
   ------------------                      ------------------------

                                     IN                                         IN
                                     --                                         --
        PRECIPITATION =        1.1673D+07          PRECIPITATION =        1230031.83
           STREAMFLOW =                               STREAMFLOW =                  
     GW BOUNDARY FLOW =             52.27       GW BOUNDARY FLOW =              1.00


                                    OUT                                        OUT
                                    ---                                        ---
   EVAPOTRANSPIRATION =        2485175.82     EVAPOTRANSPIRATION =           4146.88
           STREAMFLOW =        2031650.34             STREAMFLOW =          15807.18
     GW BOUNDARY FLOW =           6257.09       GW BOUNDARY FLOW =             35.02

   INFLOWS - OUTFLOWS =        7150080.51     INFLOWS - OUTFLOWS =        1210043.76
             --------                                   --------

 TOTAL STORAGE CHANGE =        7081982.27         STORAGE CHANGE =        1210184.17
       --------------                             --------------
         LAND SURFACE =        6001644.06           LAND SURFACE =        1230031.83
            SOIL ZONE =        3743177.11              SOIL ZONE =         -11225.22
     UNSATURATED ZONE =       -3294645.14       UNSATURATED ZONE =          -6079.89
       SATURATED ZONE =         631804.77         SATURATED ZONE =          -2542.59

 OVERALL BUDGET ERROR =          68098.25           BUDGET ERROR =           -140.40


  PERCENT DISCREPANCY =              0.59    PERCENT DISCREPANCY =             -0.01



1
 SUMMARY VOLUMETRIC BUDGET FOR GSFLOW 
 DATE: 03 31 1991              CUMULATIVE TIME STEP:      31
 MODFLOW STRESS PERIOD      7     CURRENT TIME STEP:     182     ITERATIONS:       6

 -----------------------------------------------------------------------------------

   CUMULATIVE VOLUMES               L**3   RATES FOR THIS TIME STEP           L**3/T
   ------------------                      ------------------------

                                     IN                                         IN
                                     --                                         --
        PRECIPITATION =        1.2495D+07          PRECIPITATION =                  
           STREAMFLOW =                               STREAMFLOW =                  
     GW BOUNDARY FLOW =             59.52       GW BOUNDARY FLOW =              1.06


                                    OUT                                        OUT
                                    ---                                        ---
   EVAPOTRANSPIRATION =        2593467.12     EVAPOTRANSPIRATION =          44703.21
           STREAMFLOW =        2144324.48             STREAMFLOW =          17984.61
     GW BOUNDARY FLOW =           6501.71       GW BOUNDARY FLOW =             34.93

   INFLOWS - OUTFLOWS =        7751091.50     INFLOWS - OUTFLOWS =         -62721.69
             --------                                   --------

 TOTAL STORAGE CHANGE =        7679824.09         STORAGE CHANGE =         -65212.69
       --------------                             --------------
         LAND SURFACE =        6627859.43           LAND SURFACE =        -109529.99
            SOIL ZONE =        3776091.61              SOIL ZONE =          52384.01
     UNSATURATED ZONE =       -3336304.03       UNSATURATED ZONE =          -5216.23
       SATURATED ZONE =         612175.41         SATURATED ZONE =          -2850.51

 OVERALL BUDGET ERROR =          71267.41           BUDGET ERROR =           2491.00

  ***WARNING, FLUX RATES OFF > 3%

  PERCENT DISCREPANCY =              0.57    PERCENT DISCREPANCY =              3.89



1
 SUMMARY VOLUMETRIC BUDGET FOR GSFLOW 
 DATE: 04 07 1991              CUMULATIVE TIME STEP:       7
 MODFLOW STRESS PERIOD      8     CURRENT TIME STEP:     189     ITERATIONS:       7

 -----------------------------------------------------------------------------------

   CUMULATIVE VOLUMES               L**3   RATES FOR THIS TIME STEP           L**3/T
   ------------------                      ------------------------

                                     IN                                         IN
                                     --                                         --
        PRECIPITATION =        1.3018D+07          PRECIPITATION =                  
           STREAMFLOW =                               STREAMFLOW =                  
     GW BOUNDARY FLOW =             67.15       GW BOUNDARY FLOW =              1.11


                                    OUT                                        OUT
                                    ---                                        ---
   EVAPOTRANSPIRATION =        2880774.36     EVAPOTRANSPIRATION =          13551.18
           STREAMFLOW =        2392308.94             STREAMFLOW =          50026.32
     GW BOUNDARY FLOW =           6748.03       GW BOUNDARY FLOW =             35.41

   INFLOWS - OUTFLOWS =        7737972.56     INFLOWS - OUTFLOWS =         -63611.80
             --------                                   --------

 TOTAL STORAGE CHANGE =        7637254.28         STORAGE CHANGE =         -64186.28
       --------------                             --------------
         LAND SURFACE =        5127084.68           LAND SURFACE =         -59307.30
            SOIL ZONE =        5249351.58              SOIL ZONE =          -8783.63
     UNSATURATED ZONE =       -3334627.53       UNSATURATED ZONE =           6087.19
       SATURATED ZONE =         595443.62         SATURATED ZONE =          -2182.59

 OVERALL BUDGET ERROR =         100718.29           BUDGET ERROR =            574.48


  PERCENT DISCREPANCY =              0.78    PERCENT DISCREPANCY =              0.90



1
 SUMMARY VOLUMETRIC BUDGET FOR GSFLOW 
 DATE: 04 14 1991              CUMULATIVE TIME STEP:      14
 MODFLOW STRESS PERIOD      8     CURRENT TIME STEP:     196     ITERATIONS:       7

 -----------------------------------------------------------------------------------

   CUMULATIVE VOLUMES               L**3   RATES FOR THIS TIME STEP           L**3/T
   ------------------                      ------------------------

                                     IN                                         IN
                                     --                                         --
        PRECIPITATION =        1.3018D+07          PRECIPITATION =                  
           STREAMFLOW =                               STREAMFLOW =                  
     GW BOUNDARY FLOW =             75.11       GW BOUNDARY FLOW =              1.16


                                    OUT                                        OUT
                                    ---                                        ---
   EVAPOTRANSPIRATION =        3050606.74     EVAPOTRANSPIRATION =          38933.13
           STREAMFLOW =        2790037.64             STREAMFLOW =          62138.75
     GW BOUNDARY FLOW =           6996.04       GW BOUNDARY FLOW =             35.45

   INFLOWS - OUTFLOWS =        7170171.41     INFLOWS - OUTFLOWS =        -101106.17
             --------                                   --------

 TOTAL STORAGE CHANGE =        7076319.59         STORAGE CHANGE =        -101369.10
       --------------                             --------------
         LAND SURFACE =        4519797.59           LAND SURFACE =        -171937.20
            SOIL ZONE =        5266418.44              SOIL ZONE =          66664.68
     UNSATURATED ZONE =       -3290891.55       UNSATURATED ZONE =           6033.22
       SATURATED ZONE =         580992.86         SATURATED ZONE =          -2129.85

 OVERALL BUDGET ERROR =          93851.83           BUDGET ERROR =            262.93


  PERCENT DISCREPANCY =              0.72    PERCENT DISCREPANCY =              0.26



1
 SUMMARY VOLUMETRIC BUDGET FOR GSFLOW 
 DATE: 04 21 1991              CUMULATIVE TIME STEP:      21
 MODFLOW STRESS PERIOD      8     CURRENT TIME STEP:     203     ITERATIONS:       7

 -----------------------------------------------------------------------------------

   CUMULATIVE VOLUMES               L**3   RATES FOR THIS TIME STEP           L**3/T
   ------------------                      ------------------------

                                     IN                                         IN
                                     --                                         --
        PRECIPITATION =        1.3034D+07          PRECIPITATION =                  
           STREAMFLOW =                               STREAMFLOW =                  
     GW BOUNDARY FLOW =             83.37       GW BOUNDARY FLOW =              1.20


                                    OUT                                        OUT
                                    ---                                        ---
   EVAPOTRANSPIRATION =        3282279.34     EVAPOTRANSPIRATION =          43439.42
           STREAMFLOW =        3286051.46             STREAMFLOW =          83685.84
     GW BOUNDARY FLOW =           7244.59       GW BOUNDARY FLOW =             35.63

   INFLOWS - OUTFLOWS =        6458570.08     INFLOWS - OUTFLOWS =        -127159.69
             --------                                   --------

 TOTAL STORAGE CHANGE =        6377976.94         STORAGE CHANGE =        -124517.71
       --------------                             --------------
         LAND SURFACE =        3417717.40           LAND SURFACE =        -214591.81
            SOIL ZONE =        5634293.17              SOIL ZONE =          82807.30
     UNSATURATED ZONE =       -3242254.56       UNSATURATED ZONE =           8784.98
       SATURATED ZONE =         568218.33         SATURATED ZONE =          -1518.23

 OVERALL BUDGET ERROR =          80593.15           BUDGET ERROR =          -2641.98


  PERCENT DISCREPANCY =              0.62    PERCENT DISCREPANCY =             -2.10



1
 SUMMARY VOLUMETRIC BUDGET FOR GSFLOW 
 DATE: 04 28 1991              CUMULATIVE TIME STEP:      28
 MODFLOW STRESS PERIOD      8     CURRENT TIME STEP:     210     ITERATIONS:       7

 -----------------------------------------------------------------------------------

   CUMULATIVE VOLUMES               L**3   RATES FOR THIS TIME STEP           L**3/T
   ------------------                      ------------------------

                                     IN                                         IN
                                     --                                         --
        PRECIPITATION =        1.3303D+07          PRECIPITATION =                  
           STREAMFLOW =                               STREAMFLOW =                  
     GW BOUNDARY FLOW =             91.91       GW BOUNDARY FLOW =              1.24


                                    OUT                                        OUT
                                    ---                                        ---
   EVAPOTRANSPIRATION =        3529130.22     EVAPOTRANSPIRATION =          55254.99
           STREAMFLOW =        3894990.12             STREAMFLOW =          83933.08
     GW BOUNDARY FLOW =           7493.86       GW BOUNDARY FLOW =             35.52

   INFLOWS - OUTFLOWS =        5871908.21     INFLOWS - OUTFLOWS =        -139222.35
             --------                                   --------

 TOTAL STORAGE CHANGE =        5831026.36         STORAGE CHANGE =        -132647.65
       --------------                             --------------
         LAND SURFACE =        2828492.49           LAND SURFACE =        -115203.82
            SOIL ZONE =        5622934.91              SOIL ZONE =         -24694.29
     UNSATURATED ZONE =       -3179391.31       UNSATURATED ZONE =           8144.00
       SATURATED ZONE =         558987.28         SATURATED ZONE =           -893.59

 OVERALL BUDGET ERROR =          40881.85           BUDGET ERROR =          -6574.71

  ***WARNING, FLUX RATES OFF > 3%

  PERCENT DISCREPANCY =              0.31    PERCENT DISCREPANCY =             -4.84



1
 SUMMARY VOLUMETRIC BUDGET FOR GSFLOW 
 DATE: 05 05 1991              CUMULATIVE TIME STEP:       5
 MODFLOW STRESS PERIOD      9     CURRENT TIME STEP:     217     ITERATIONS:      10

 -----------------------------------------------------------------------------------

   CUMULATIVE VOLUMES               L**3   RATES FOR THIS TIME STEP           L**3/T
   ------------------                      ------------------------

                                     IN                                         IN
                                     --                                         --
        PRECIPITATION =        1.3510D+07          PRECIPITATION =                  
           STREAMFLOW =                               STREAMFLOW =                  
     GW BOUNDARY FLOW =            100.71       GW BOUNDARY FLOW =              1.27


                                    OUT                                        OUT
                                    ---                                        ---
   EVAPOTRANSPIRATION =        3878048.66     EVAPOTRANSPIRATION =          84776.04
           STREAMFLOW =        4449707.42             STREAMFLOW =          80723.91
     GW BOUNDARY FLOW =           7742.72       GW BOUNDARY FLOW =             35.56

   INFLOWS - OUTFLOWS =        5174310.04     INFLOWS - OUTFLOWS =        -165534.24
             --------                                   --------

 TOTAL STORAGE CHANGE =        5176205.44         STORAGE CHANGE =        -159622.26
       --------------                             --------------
         LAND SURFACE =        2164321.66           LAND SURFACE =        -169194.91
            SOIL ZONE =        5587277.21              SOIL ZONE =           2288.92
     UNSATURATED ZONE =       -3125667.37       UNSATURATED ZONE =           6714.62
       SATURATED ZONE =         550270.22         SATURATED ZONE =            568.93

 OVERALL BUDGET ERROR =          -1895.40           BUDGET ERROR =          -5911.97

  ***WARNING, FLUX RATES OFF > 3%

  PERCENT DISCREPANCY =             -0.01    PERCENT DISCREPANCY =             -3.64



1
 SUMMARY VOLUMETRIC BUDGET FOR GSFLOW 
 DATE: 05 12 1991              CUMULATIVE TIME STEP:      12
 MODFLOW STRESS PERIOD      9     CURRENT TIME STEP:     224     ITERATIONS:       6

 -----------------------------------------------------------------------------------

   CUMULATIVE VOLUMES               L**3   RATES FOR THIS TIME STEP           L**3/T
   ------------------                      ------------------------

                                     IN                                         IN
                                     --                                         --
        PRECIPITATION =        1.4029D+07          PRECIPITATION =                  
           STREAMFLOW =                               STREAMFLOW =                  
     GW BOUNDARY FLOW =            109.77       GW BOUNDARY FLOW =              1.31


                                    OUT                                        OUT
                                    ---                                        ---
   EVAPOTRANSPIRATION =        4247820.13     EVAPOTRANSPIRATION =          62578.29
           STREAMFLOW =        4997470.44             STREAMFLOW =          80881.90
     GW BOUNDARY FLOW =           7990.72       GW BOUNDARY FLOW =             35.38

   INFLOWS - OUTFLOWS =        4776050.63     INFLOWS - OUTFLOWS =        -143494.26
             --------                                   --------

 TOTAL STORAGE CHANGE =        4818200.65         STORAGE CHANGE =        -138212.46
       --------------                             --------------
         LAND SURFACE =        1719829.11           LAND SURFACE =        -195667.45
            SOIL ZONE =        5627658.95              SOIL ZONE =          51093.82
     UNSATURATED ZONE =       -3069625.30       UNSATURATED ZONE =           7740.14
       SATURATED ZONE =         540332.31         SATURATED ZONE =          -1379.31

 OVERALL BUDGET ERROR =         -42150.02           BUDGET ERROR =          -5281.80

  ***WARNING, FLUX RATES OFF > 3%

  PERCENT DISCREPANCY =             -0.30    PERCENT DISCREPANCY =             -3.75



1
 SUMMARY VOLUMETRIC BUDGET FOR GSFLOW 
 DATE: 05 19 1991              CUMULATIVE TIME STEP:      19
 MODFLOW STRESS PERIOD      9     CURRENT TIME STEP:     231     ITERATIONS:       9

 -----------------------------------------------------------------------------------

   CUMULATIVE VOLUMES               L**3   RATES FOR THIS TIME STEP           L**3/T
   ------------------                      ------------------------

                                     IN                                         IN
                                     --                                         --
        PRECIPITATION =        1.4365D+07          PRECIPITATION =                  
           STREAMFLOW =                               STREAMFLOW =                  
     GW BOUNDARY FLOW =            119.07       GW BOUNDARY FLOW =              1.35


                                    OUT                                        OUT
                                    ---                                        ---
   EVAPOTRANSPIRATION =        4647737.88     EVAPOTRANSPIRATION =          17977.42
           STREAMFLOW =        5543175.71             STREAMFLOW =          70732.66
     GW BOUNDARY FLOW =           8237.46       GW BOUNDARY FLOW =             35.09

   INFLOWS - OUTFLOWS =        4166346.33     INFLOWS - OUTFLOWS =         -88743.82
             --------                                   --------

 TOTAL STORAGE CHANGE =        4251802.03         STORAGE CHANGE =         -81804.09
       --------------                             --------------
         LAND SURFACE =        1168636.62           LAND SURFACE =         -21196.61
            SOIL ZONE =        5567640.32              SOIL ZONE =         -65666.91
     UNSATURATED ZONE =       -3015546.82       UNSATURATED ZONE =           6626.54
       SATURATED ZONE =         531063.34         SATURATED ZONE =          -1567.61

 OVERALL BUDGET ERROR =         -85455.70           BUDGET ERROR =          -6939.73

  ***WARNING, FLUX RATES OFF > 3%

  PERCENT DISCREPANCY =             -0.59    PERCENT DISCREPANCY =             -8.14



1
 SUMMARY VOLUMETRIC BUDGET FOR GSFLOW 
 DATE: 05 26 1991              CUMULATIVE TIME STEP:      26
 MODFLOW STRESS PERIOD      9     CURRENT TIME STEP:     238     ITERATIONS:       8

 -----------------------------------------------------------------------------------

   CUMULATIVE VOLUMES               L**3   RATES FOR THIS TIME STEP           L**3/T
   ------------------                      ------------------------

                                     IN                                         IN
                                     --                                         --
        PRECIPITATION =        1.4426D+07          PRECIPITATION =                  
           STREAMFLOW =                               STREAMFLOW =                  
     GW BOUNDARY FLOW =            128.64       GW BOUNDARY FLOW =              1.38


                                    OUT                                        OUT
                                    ---                                        ---
   EVAPOTRANSPIRATION =        5294766.84     EVAPOTRANSPIRATION =          71053.23
           STREAMFLOW =        5993030.93             STREAMFLOW =          51958.04
     GW BOUNDARY FLOW =           8481.79       GW BOUNDARY FLOW =             34.67

   INFLOWS - OUTFLOWS =        3130346.68     INFLOWS - OUTFLOWS =        -123044.55
             --------                                   --------

 TOTAL STORAGE CHANGE =        3255930.94         STORAGE CHANGE =        -118489.98
       --------------                             --------------
         LAND SURFACE =         620424.10           LAND SURFACE =         -40812.89
            SOIL ZONE =        5093526.69              SOIL ZONE =         -79134.24
     UNSATURATED ZONE =       -2976560.24       UNSATURATED ZONE =           3504.53
       SATURATED ZONE =         518527.73         SATURATED ZONE =          -2048.03

 OVERALL BUDGET ERROR =        -125584.26           BUDGET ERROR =          -4554.57

  ***WARNING, FLUX RATES OFF > 3%

  PERCENT DISCREPANCY =             -0.87    PERCENT DISCREPANCY =             -3.77



1
 SUMMARY VOLUMETRIC BUDGET FOR GSFLOW 
 DATE: 06 02 1991              CUMULATIVE TIME STEP:       2
 MODFLOW STRESS PERIOD     10     CURRENT TIME STEP:     245     ITERATIONS:       8

 -----------------------------------------------------------------------------------

   CUMULATIVE VOLUMES               L**3   RATES FOR THIS TIME STEP           L**3/T
   ------------------                      ------------------------

                                     IN                                         IN
                                     --                                         --
        PRECIPITATION =        1.4671D+07          PRECIPITATION =                  
           STREAMFLOW =                               STREAMFLOW =                  
     GW BOUNDARY FLOW =            138.47       GW BOUNDARY FLOW =              1.42


                                    OUT                                        OUT
                                    ---                                        ---
   EVAPOTRANSPIRATION =        5839449.33     EVAPOTRANSPIRATION =         119332.66
           STREAMFLOW =        6321226.89             STREAMFLOW =          43124.37
     GW BOUNDARY FLOW =           8723.30       GW BOUNDARY FLOW =             34.38

   INFLOWS - OUTFLOWS =        2501713.75     INFLOWS - OUTFLOWS =        -162489.98
             --------                                   --------

 TOTAL STORAGE CHANGE =        2651359.67         STORAGE CHANGE =        -158565.20
       --------------                             --------------
         LAND SURFACE =         358942.20           LAND SURFACE =         -46420.51
            SOIL ZONE =        4751433.25              SOIL ZONE =        -111230.52
     UNSATURATED ZONE =       -2962532.41       UNSATURATED ZONE =           1381.65
       SATURATED ZONE =         503498.75         SATURATED ZONE =          -2296.64

 OVERALL BUDGET ERROR =        -149645.92           BUDGET ERROR =          -3924.78


  PERCENT DISCREPANCY =             -1.01    PERCENT DISCREPANCY =             -2.44



1
 SUMMARY VOLUMETRIC BUDGET FOR GSFLOW 
 DATE: 06 09 1991              CUMULATIVE TIME STEP:       9
 MODFLOW STRESS PERIOD     10     CURRENT TIME STEP:     252     ITERATIONS:       7

 -----------------------------------------------------------------------------------

   CUMULATIVE VOLUMES               L**3   RATES FOR THIS TIME STEP           L**3/T
   ------------------                      ------------------------

                                     IN                                         IN
                                     --                                         --
        PRECIPITATION =        1.4671D+07          PRECIPITATION =                  
           STREAMFLOW =                               STREAMFLOW =                  
     GW BOUNDARY FLOW =            148.58       GW BOUNDARY FLOW =              1.46


                                    OUT                                        OUT
                                    ---                                        ---
   EVAPOTRANSPIRATION =        6555445.26     EVAPOTRANSPIRATION =         166447.12
           STREAMFLOW =        6563029.65             STREAMFLOW =          29174.16
     GW BOUNDARY FLOW =           8962.38       GW BOUNDARY FLOW =             34.00

   INFLOWS - OUTFLOWS =        1543686.08     INFLOWS - OUTFLOWS =        -195653.82
             --------                                   --------

 TOTAL STORAGE CHANGE =        1712111.78         STORAGE CHANGE =        -193139.26
       --------------                             --------------
         LAND SURFACE =         151647.51           LAND SURFACE =         -33724.69
            SOIL ZONE =        4043208.95              SOIL ZONE =        -154343.91
     UNSATURATED ZONE =       -2967235.03       UNSATURATED ZONE =          -2031.50
       SATURATED ZONE =         484466.16         SATURATED ZONE =          -3040.13

 OVERALL BUDGET ERROR =        -168425.69           BUDGET ERROR =          -2514.56


  PERCENT DISCREPANCY =             -1.14    PERCENT DISCREPANCY =             -1.29



1
 SUMMARY VOLUMETRIC BUDGET FOR GSFLOW 
 DATE: 06 16 1991              CUMULATIVE TIME STEP:      16
 MODFLOW STRESS PERIOD     10     CURRENT TIME STEP:     259     ITERATIONS:       6

 -----------------------------------------------------------------------------------

   CUMULATIVE VOLUMES               L**3   RATES FOR THIS TIME STEP           L**3/T
   ------------------                      ------------------------

                                     IN                                         IN
                                     --                                         --
        PRECIPITATION =        1.4671D+07          PRECIPITATION =                  
           STREAMFLOW =                               STREAMFLOW =                  
     GW BOUNDARY FLOW =            158.98       GW BOUNDARY FLOW =              1.50


                                    OUT                                        OUT
                                    ---                                        ---
   EVAPOTRANSPIRATION =        7514661.24     EVAPOTRANSPIRATION =         108576.69
           STREAMFLOW =        6714778.84             STREAMFLOW =          18270.65
     GW BOUNDARY FLOW =           9197.69       GW BOUNDARY FLOW =             33.49

   INFLOWS - OUTFLOWS =         432496.01     INFLOWS - OUTFLOWS =        -126879.32
             --------                                   --------

 TOTAL STORAGE CHANGE =         613995.05         STORAGE CHANGE =        -125300.00
       --------------                             --------------
         LAND SURFACE =          42141.08           LAND SURFACE =          -7293.27
            SOIL ZONE =        3123282.77              SOIL ZONE =        -104178.67
     UNSATURATED ZONE =       -3009661.16       UNSATURATED ZONE =          -9401.68
       SATURATED ZONE =         458200.76         SATURATED ZONE =          -4427.50

 OVERALL BUDGET ERROR =        -181499.04           BUDGET ERROR =          -1579.33


  PERCENT DISCREPANCY =             -1.23    PERCENT DISCREPANCY =             -1.25



1
 SUMMARY VOLUMETRIC BUDGET FOR GSFLOW 
 DATE: 06 23 1991              CUMULATIVE TIME STEP:      23
 MODFLOW STRESS PERIOD     10     CURRENT TIME STEP:     266     ITERATIONS:       7

 -----------------------------------------------------------------------------------

   CUMULATIVE VOLUMES               L**3   RATES FOR THIS TIME STEP           L**3/T
   ------------------                      ------------------------

                                     IN                                         IN
                                     --                                         --
        PRECIPITATION =        1.4671D+07          PRECIPITATION =                  
           STREAMFLOW =                               STREAMFLOW =                  
     GW BOUNDARY FLOW =            169.67       GW BOUNDARY FLOW =              1.55


                                    OUT                                        OUT
                                    ---                                        ---
   EVAPOTRANSPIRATION =        7995863.92     EVAPOTRANSPIRATION =          34647.33
           STREAMFLOW =        6828385.91             STREAMFLOW =          15703.57
     GW BOUNDARY FLOW =           9431.29       GW BOUNDARY FLOW =             33.33

   INFLOWS - OUTFLOWS =        -162536.66     INFLOWS - OUTFLOWS =         -50382.69
             --------                                   --------

 TOTAL STORAGE CHANGE =          26981.78         STORAGE CHANGE =         -49636.67
       --------------                             --------------
         LAND SURFACE =          16912.07           LAND SURFACE =          -1657.64
            SOIL ZONE =        2668870.05              SOIL ZONE =         -34071.20
     UNSATURATED ZONE =       -3080994.71       UNSATURATED ZONE =          -8645.16
       SATURATED ZONE =         422154.28         SATURATED ZONE =          -5263.94

 OVERALL BUDGET ERROR =        -189518.44           BUDGET ERROR =           -746.02


  PERCENT DISCREPANCY =             -1.28    PERCENT DISCREPANCY =             -1.49



1
 SUMMARY VOLUMETRIC BUDGET FOR GSFLOW 
 DATE: 06 30 1991              CUMULATIVE TIME STEP:      30
 MODFLOW STRESS PERIOD     10     CURRENT TIME STEP:     273     ITERATIONS:       8

 -----------------------------------------------------------------------------------

[...]
                                    ---                                        ---
   EVAPOTRANSPIRATION =        7.3860D+07     EVAPOTRANSPIRATION =          85395.50
           STREAMFLOW =        7.4551D+07             STREAMFLOW =          14207.87
     GW BOUNDARY FLOW =          51175.41       GW BOUNDARY FLOW =             24.60

   INFLOWS - OUTFLOWS =       -1.4948D+07     INFLOWS - OUTFLOWS =         -99624.64
             --------                                   --------

 TOTAL STORAGE CHANGE =       -1.0460D+07         STORAGE CHANGE =         -97821.10
       --------------                             --------------
         LAND SURFACE =         524381.74           LAND SURFACE =         -24592.44
            SOIL ZONE =        2181999.91              SOIL ZONE =         -59180.08
     UNSATURATED ZONE =          41371.71       UNSATURATED ZONE =          -9169.76
       SATURATED ZONE =       -1.3217D+07         SATURATED ZONE =          -4890.44

 OVERALL BUDGET ERROR =       -4487473.43           BUDGET ERROR =          -1803.54


  PERCENT DISCREPANCY =             -3.07    PERCENT DISCREPANCY =             -1.83



1
 SUMMARY VOLUMETRIC BUDGET FOR GSFLOW 
 DATE: 09 03 1995              CUMULATIVE TIME STEP:       3
 MODFLOW STRESS PERIOD     61     CURRENT TIME STEP:    1799     ITERATIONS:       6

 -----------------------------------------------------------------------------------

   CUMULATIVE VOLUMES               L**3   RATES FOR THIS TIME STEP           L**3/T
   ------------------                      ------------------------

                                     IN                                         IN
                                     --                                         --
        PRECIPITATION =        1.3351D+08          PRECIPITATION =                  
           STREAMFLOW =                               STREAMFLOW =                  
     GW BOUNDARY FLOW =           5603.71       GW BOUNDARY FLOW =              3.42


                                    OUT                                        OUT
                                    ---                                        ---
   EVAPOTRANSPIRATION =        7.4437D+07     EVAPOTRANSPIRATION =          77318.55
           STREAMFLOW =        7.4637D+07             STREAMFLOW =          11005.08
     GW BOUNDARY FLOW =          51346.37       GW BOUNDARY FLOW =             24.24

   INFLOWS - OUTFLOWS =       -1.5611D+07     INFLOWS - OUTFLOWS =         -88344.44
             --------                                   --------

 TOTAL STORAGE CHANGE =       -1.1115D+07         STORAGE CHANGE =         -87835.91
       --------------                             --------------
         LAND SURFACE =         372015.95           LAND SURFACE =         -19446.39
            SOIL ZONE =        1787636.90              SOIL ZONE =         -52282.64
     UNSATURATED ZONE =         -24423.46       UNSATURATED ZONE =          -9575.70
       SATURATED ZONE =       -1.3259D+07         SATURATED ZONE =          -6542.85

 OVERALL BUDGET ERROR =       -4496361.89           BUDGET ERROR =           -508.53


  PERCENT DISCREPANCY =             -3.06    PERCENT DISCREPANCY =             -0.58



1
 SUMMARY VOLUMETRIC BUDGET FOR GSFLOW 
 DATE: 09 10 1995              CUMULATIVE TIME STEP:      10
 MODFLOW STRESS PERIOD     61     CURRENT TIME STEP:    1806     ITERATIONS:       7

 -----------------------------------------------------------------------------------

   CUMULATIVE VOLUMES               L**3   RATES FOR THIS TIME STEP           L**3/T
   ------------------                      ------------------------

                                     IN                                         IN
                                     --                                         --
        PRECIPITATION =        1.3351D+08          PRECIPITATION =                  
           STREAMFLOW =                               STREAMFLOW =                  
     GW BOUNDARY FLOW =           5628.06       GW BOUNDARY FLOW =              3.52


                                    OUT                                        OUT
                                    ---                                        ---
   EVAPOTRANSPIRATION =        7.4872D+07     EVAPOTRANSPIRATION =          58227.40
           STREAMFLOW =        7.4710D+07             STREAMFLOW =           9866.85
     GW BOUNDARY FLOW =          51515.96       GW BOUNDARY FLOW =             24.20

   INFLOWS - OUTFLOWS =       -1.6120D+07     INFLOWS - OUTFLOWS =         -68114.93
             --------                                   --------

 TOTAL STORAGE CHANGE =       -1.1620D+07         STORAGE CHANGE =         -67651.46
       --------------                             --------------
         LAND SURFACE =         271470.10           LAND SURFACE =         -12572.77
            SOIL ZONE =        1489806.45              SOIL ZONE =         -39655.02
     UNSATURATED ZONE =         -87378.94       UNSATURATED ZONE =          -8812.79
       SATURATED ZONE =       -1.3303D+07         SATURATED ZONE =          -6622.55

 OVERALL BUDGET ERROR =       -4499697.46           BUDGET ERROR =           -463.46


  PERCENT DISCREPANCY =             -3.05    PERCENT DISCREPANCY =             -0.68



1
 SUMMARY VOLUMETRIC BUDGET FOR GSFLOW 
 DATE: 09 17 1995              CUMULATIVE TIME STEP:      17
 MODFLOW STRESS PERIOD     61     CURRENT TIME STEP:    1813     ITERATIONS:       7

 -----------------------------------------------------------------------------------

   CUMULATIVE VOLUMES               L**3   RATES FOR THIS TIME STEP           L**3/T
   ------------------                      ------------------------

                                     IN                                         IN
                                     --                                         --
        PRECIPITATION =        1.3351D+08          PRECIPITATION =                  
           STREAMFLOW =                               STREAMFLOW =                  
     GW BOUNDARY FLOW =           5653.08       GW BOUNDARY FLOW =              3.61


                                    OUT                                        OUT
                                    ---                                        ---
   EVAPOTRANSPIRATION =        7.5347D+07     EVAPOTRANSPIRATION =          54655.61
           STREAMFLOW =        7.4769D+07             STREAMFLOW =           8229.14
     GW BOUNDARY FLOW =          51684.55       GW BOUNDARY FLOW =             24.09

   INFLOWS - OUTFLOWS =       -1.6653D+07     INFLOWS - OUTFLOWS =         -62905.23
             --------                                   --------

 TOTAL STORAGE CHANGE =       -1.2150D+07         STORAGE CHANGE =         -62467.64
       --------------                             --------------
         LAND SURFACE =         180685.69           LAND SURFACE =          -9600.58
            SOIL ZONE =        1176721.76              SOIL ZONE =         -35892.98
     UNSATURATED ZONE =        -153478.28       UNSATURATED ZONE =          -9282.58
       SATURATED ZONE =       -1.3363D+07         SATURATED ZONE =          -7703.17

 OVERALL BUDGET ERROR =       -4503139.48           BUDGET ERROR =           -437.59


  PERCENT DISCREPANCY =             -3.04    PERCENT DISCREPANCY =             -0.70



1
 SUMMARY VOLUMETRIC BUDGET FOR GSFLOW 
 DATE: 09 24 1995              CUMULATIVE TIME STEP:      24
 MODFLOW STRESS PERIOD     61     CURRENT TIME STEP:    1820     ITERATIONS:       7

 -----------------------------------------------------------------------------------

   CUMULATIVE VOLUMES               L**3   RATES FOR THIS TIME STEP           L**3/T
   ------------------                      ------------------------

                                     IN                                         IN
                                     --                                         --
        PRECIPITATION =        1.3351D+08          PRECIPITATION =                  
           STREAMFLOW =                               STREAMFLOW =                  
     GW BOUNDARY FLOW =           5678.75       GW BOUNDARY FLOW =              3.71


                                    OUT                                        OUT
                                    ---                                        ---
   EVAPOTRANSPIRATION =        7.5686D+07     EVAPOTRANSPIRATION =          34976.27
           STREAMFLOW =        7.4825D+07             STREAMFLOW =           8419.15
     GW BOUNDARY FLOW =          51853.08       GW BOUNDARY FLOW =             24.12

   INFLOWS - OUTFLOWS =       -1.7048D+07     INFLOWS - OUTFLOWS =         -43415.83
             --------                                   --------

 TOTAL STORAGE CHANGE =       -1.2542D+07         STORAGE CHANGE =         -43010.84
       --------------                             --------------
         LAND SURFACE =         125692.07           LAND SURFACE =          -5511.04
            SOIL ZONE =         955510.30              SOIL ZONE =         -22556.75
     UNSATURATED ZONE =        -214368.04       UNSATURATED ZONE =          -8198.88
       SATURATED ZONE =       -1.3419D+07         SATURATED ZONE =          -6755.84

 OVERALL BUDGET ERROR =       -4506201.65           BUDGET ERROR =           -404.99


  PERCENT DISCREPANCY =             -3.04    PERCENT DISCREPANCY =             -0.94



1
 SUMMARY VOLUMETRIC BUDGET FOR GSFLOW 
 DATE: 10 01 1995              CUMULATIVE TIME STEP:       1
 MODFLOW STRESS PERIOD     62     CURRENT TIME STEP:    1827     ITERATIONS:       6

 -----------------------------------------------------------------------------------

   CUMULATIVE VOLUMES               L**3   RATES FOR THIS TIME STEP           L**3/T
   ------------------                      ------------------------

                                     IN                                         IN
                                     --                                         --
        PRECIPITATION =        1.3351D+08          PRECIPITATION =                  
           STREAMFLOW =                               STREAMFLOW =                  
     GW BOUNDARY FLOW =           5705.03       GW BOUNDARY FLOW =              3.79


                                    OUT                                        OUT
                                    ---                                        ---
   EVAPOTRANSPIRATION =        7.5824D+07     EVAPOTRANSPIRATION =          20802.19
           STREAMFLOW =        7.4889D+07             STREAMFLOW =           9076.37
     GW BOUNDARY FLOW =          52022.37       GW BOUNDARY FLOW =             24.19

   INFLOWS - OUTFLOWS =       -1.7251D+07     INFLOWS - OUTFLOWS =         -29898.96
             --------                                   --------

 TOTAL STORAGE CHANGE =       -1.2743D+07         STORAGE CHANGE =         -29537.25
       --------------                             --------------
         LAND SURFACE =         102504.92           LAND SURFACE =          -2862.19
            SOIL ZONE =         868598.49              SOIL ZONE =         -13455.13
     UNSATURATED ZONE =        -267544.08       UNSATURATED ZONE =          -7491.64
       SATURATED ZONE =       -1.3456D+07         SATURATED ZONE =          -5739.96

 OVERALL BUDGET ERROR =       -4508710.41           BUDGET ERROR =           -361.71


  PERCENT DISCREPANCY =             -3.04    PERCENT DISCREPANCY =             -1.22



1
 SUMMARY VOLUMETRIC BUDGET FOR GSFLOW 
 DATE: 10 08 1995              CUMULATIVE TIME STEP:       8
 MODFLOW STRESS PERIOD     62     CURRENT TIME STEP:    1834     ITERATIONS:       6

 -----------------------------------------------------------------------------------

   CUMULATIVE VOLUMES               L**3   RATES FOR THIS TIME STEP           L**3/T
   ------------------                      ------------------------

                                     IN                                         IN
                                     --                                         --
        PRECIPITATION =        1.3351D+08          PRECIPITATION =                  
           STREAMFLOW =                               STREAMFLOW =                  
     GW BOUNDARY FLOW =           5731.87       GW BOUNDARY FLOW =              3.87


                                    OUT                                        OUT
                                    ---                                        ---
   EVAPOTRANSPIRATION =        7.5986D+07     EVAPOTRANSPIRATION =          20189.01
           STREAMFLOW =        7.4950D+07             STREAMFLOW =           8760.64
     GW BOUNDARY FLOW =          52191.55       GW BOUNDARY FLOW =             24.18

   INFLOWS - OUTFLOWS =       -1.7474D+07     INFLOWS - OUTFLOWS =         -28969.95
             --------                                   --------

 TOTAL STORAGE CHANGE =       -1.2963D+07         STORAGE CHANGE =         -28610.92
       --------------                             --------------
         LAND SURFACE =          81951.51           LAND SURFACE =          -2502.54
            SOIL ZONE =         765878.80              SOIL ZONE =         -12553.21
     UNSATURATED ZONE =        -319577.48       UNSATURATED ZONE =          -7266.03
       SATURATED ZONE =       -1.3501D+07         SATURATED ZONE =          -6300.80

 OVERALL BUDGET ERROR =       -4511312.73           BUDGET ERROR =           -359.03


  PERCENT DISCREPANCY =             -3.03    PERCENT DISCREPANCY =             -1.25



1
 SUMMARY VOLUMETRIC BUDGET FOR GSFLOW 
 DATE: 10 15 1995              CUMULATIVE TIME STEP:      15
 MODFLOW STRESS PERIOD     62     CURRENT TIME STEP:    1841     ITERATIONS:       6

 -----------------------------------------------------------------------------------

   CUMULATIVE VOLUMES               L**3   RATES FOR THIS TIME STEP           L**3/T
   ------------------                      ------------------------

                                     IN                                         IN
                                     --                                         --
        PRECIPITATION =        1.3351D+08          PRECIPITATION =                  
           STREAMFLOW =                               STREAMFLOW =                  
     GW BOUNDARY FLOW =           5759.23       GW BOUNDARY FLOW =              3.94


                                    OUT                                        OUT
                                    ---                                        ---
   EVAPOTRANSPIRATION =        7.6144D+07     EVAPOTRANSPIRATION =          25365.30
           STREAMFLOW =        7.5009D+07             STREAMFLOW =           8130.68
     GW BOUNDARY FLOW =          52360.63       GW BOUNDARY FLOW =             24.14

   INFLOWS - OUTFLOWS =       -1.7691D+07     INFLOWS - OUTFLOWS =         -33516.17
             --------                                   --------

 TOTAL STORAGE CHANGE =       -1.3177D+07         STORAGE CHANGE =         -33133.57
       --------------                             --------------
         LAND SURFACE =          63226.18           LAND SURFACE =          -2687.15
            SOIL ZONE =         669639.82              SOIL ZONE =         -15256.00
     UNSATURATED ZONE =        -371425.55       UNSATURATED ZONE =          -7633.49
       SATURATED ZONE =       -1.3549D+07         SATURATED ZONE =          -7568.59

 OVERALL BUDGET ERROR =       -4513930.35           BUDGET ERROR =           -382.61


  PERCENT DISCREPANCY =             -3.03    PERCENT DISCREPANCY =             -1.15



1
 SUMMARY VOLUMETRIC BUDGET FOR GSFLOW 
 DATE: 10 22 1995              CUMULATIVE TIME STEP:      22
 MODFLOW STRESS PERIOD     62     CURRENT TIME STEP:    1848     ITERATIONS:       7

 -----------------------------------------------------------------------------------

   CUMULATIVE VOLUMES               L**3   RATES FOR THIS TIME STEP           L**3/T
   ------------------                      ------------------------

                                     IN                                         IN
                                     --                                         --
        PRECIPITATION =        1.3351D+08          PRECIPITATION =                  
           STREAMFLOW =                               STREAMFLOW =                  
     GW BOUNDARY FLOW =           5787.07       GW BOUNDARY FLOW =              4.00


                                    OUT                                        OUT
                                    ---                                        ---
   EVAPOTRANSPIRATION =        7.6287D+07     EVAPOTRANSPIRATION =           5917.33
           STREAMFLOW =        7.5067D+07             STREAMFLOW =           9294.11
     GW BOUNDARY FLOW =          52529.70       GW BOUNDARY FLOW =             24.24

   INFLOWS - OUTFLOWS =       -1.7892D+07     INFLOWS - OUTFLOWS =         -15231.67
             --------                                   --------

 TOTAL STORAGE CHANGE =       -1.3375D+07         STORAGE CHANGE =         -14933.30
       --------------                             --------------
         LAND SURFACE =          49141.37           LAND SURFACE =           -667.02
            SOIL ZONE =         585637.08              SOIL ZONE =          -3490.42
     UNSATURATED ZONE =        -421502.26       UNSATURATED ZONE =          -6313.94
       SATURATED ZONE =       -1.3599D+07         SATURATED ZONE =          -4473.59

 OVERALL BUDGET ERROR =       -4516477.35           BUDGET ERROR =           -298.37


  PERCENT DISCREPANCY =             -3.03    PERCENT DISCREPANCY =             -1.98



1
 SUMMARY VOLUMETRIC BUDGET FOR GSFLOW 
 DATE: 10 29 1995              CUMULATIVE TIME STEP:      29
 MODFLOW STRESS PERIOD     62     CURRENT TIME STEP:    1855     ITERATIONS:       5

 -----------------------------------------------------------------------------------

   CUMULATIVE VOLUMES               L**3   RATES FOR THIS TIME STEP           L**3/T
   ------------------                      ------------------------

                                     IN                                         IN
                                     --                                         --
        PRECIPITATION =        1.3351D+08          PRECIPITATION =                  
           STREAMFLOW =                               STREAMFLOW =                  
     GW BOUNDARY FLOW =           5815.34       GW BOUNDARY FLOW =              4.07


                                    OUT                                        OUT
                                    ---                                        ---
   EVAPOTRANSPIRATION =        7.6373D+07     EVAPOTRANSPIRATION =          15007.98
           STREAMFLOW =        7.5128D+07             STREAMFLOW =           8415.25
     GW BOUNDARY FLOW =          52699.15       GW BOUNDARY FLOW =             24.18

   INFLOWS - OUTFLOWS =       -1.8039D+07     INFLOWS - OUTFLOWS =         -23443.35
             --------                                   --------

 TOTAL STORAGE CHANGE =       -1.3520D+07         STORAGE CHANGE =         -23094.55
       --------------                             --------------
         LAND SURFACE =          42922.70           LAND SURFACE =          -1382.99
            SOIL ZONE =         535369.21              SOIL ZONE =          -8294.56
     UNSATURATED ZONE =        -467281.86       UNSATURATED ZONE =          -6548.91
       SATURATED ZONE =       -1.3641D+07         SATURATED ZONE =          -6879.75

 OVERALL BUDGET ERROR =       -4518846.81           BUDGET ERROR =           -348.80


  PERCENT DISCREPANCY =             -3.03    PERCENT DISCREPANCY =             -1.50



