1
 SUMMARY VOLUMETRIC BUDGET FOR GSFLOW 
 DATE: 10 07 1990              CUMULATIVE TIME STEP:       7
 MODFLOW STRESS PERIOD      2     CURRENT TIME STEP:       7     ITERATIONS:       7

 -----------------------------------------------------------------------------------

   CUMULATIVE VOLUMES               L**3   RATES FOR THIS TIME STEP           L**3/T
   ------------------                      ------------------------

                                     IN                                         IN
                                     --                                         --
        PRECIPITATION =                            PRECIPITATION =                  
           STREAMFLOW =                               STREAMFLOW =                  
     GW BOUNDARY FLOW =                         GW BOUNDARY FLOW =                  


                                    OUT                                        OUT
                                    ---                                        ---
   EVAPOTRANSPIRATION =         382474.05     EVAPOTRANSPIRATION =          12595.07
           STREAMFLOW =          45678.85             STREAMFLOW =           8117.34
     GW BOUNDARY FLOW =            252.78       GW BOUNDARY FLOW =             36.30

   INFLOWS - OUTFLOWS =        -428405.67     INFLOWS - OUTFLOWS =         -20748.71
             --------                                   --------

 TOTAL STORAGE CHANGE =        -426932.09         STORAGE CHANGE =         -20723.07
       --------------                             --------------
         LAND SURFACE =                             LAND SURFACE =                  
            SOIL ZONE =         -33207.99              SOIL ZONE =          -1003.50
     UNSATURATED ZONE =        -500660.07       UNSATURATED ZONE =         -34258.69
       SATURATED ZONE =         106935.97         SATURATED ZONE =          14539.12

 OVERALL BUDGET ERROR =          -1473.57           BUDGET ERROR =            -25.65


  PERCENT DISCREPANCY =             -0.34    PERCENT DISCREPANCY =             -0.12



1
 SUMMARY VOLUMETRIC BUDGET FOR GSFLOW 
 DATE: 10 14 1990              CUMULATIVE TIME STEP:      14
 MODFLOW STRESS PERIOD      2     CURRENT TIME STEP:      14     ITERATIONS:       6

 -----------------------------------------------------------------------------------

   CUMULATIVE VOLUMES               L**3   RATES FOR THIS TIME STEP           L**3/T
   ------------------                      ------------------------

                                     IN                                         IN
                                     --                                         --
        PRECIPITATION =                            PRECIPITATION =                  
           STREAMFLOW =                               STREAMFLOW =                  
     GW BOUNDARY FLOW =                         GW BOUNDARY FLOW =                  


                                    OUT                                        OUT
                                    ---                                        ---
   EVAPOTRANSPIRATION =         661810.72     EVAPOTRANSPIRATION =          42901.91
           STREAMFLOW =         100405.40             STREAMFLOW =           7405.19
     GW BOUNDARY FLOW =            506.62       GW BOUNDARY FLOW =             36.24

   INFLOWS - OUTFLOWS =        -762722.74     INFLOWS - OUTFLOWS =         -50343.34
             --------                                   --------

 TOTAL STORAGE CHANGE =        -760981.37         STORAGE CHANGE =         -50324.83
       --------------                             --------------
         LAND SURFACE =                             LAND SURFACE =                  
            SOIL ZONE =         -57924.93              SOIL ZONE =          -4415.39
     UNSATURATED ZONE =        -875124.17       UNSATURATED ZONE =         -52618.24
       SATURATED ZONE =         172067.73         SATURATED ZONE =           6708.80

 OVERALL BUDGET ERROR =          -1741.37           BUDGET ERROR =            -18.51


  PERCENT DISCREPANCY =             -0.23    PERCENT DISCREPANCY =             -0.04



1
 SUMMARY VOLUMETRIC BUDGET FOR GSFLOW 
 DATE: 10 21 1990              CUMULATIVE TIME STEP:      21
 MODFLOW STRESS PERIOD      2     CURRENT TIME STEP:      21     ITERATIONS:       6

 -----------------------------------------------------------------------------------

   CUMULATIVE VOLUMES               L**3   RATES FOR THIS TIME STEP           L**3/T
   ------------------                      ------------------------

                                     IN                                         IN
                                     --                                         --
        PRECIPITATION =         188432.87          PRECIPITATION =                  
           STREAMFLOW =                               STREAMFLOW =                  
     GW BOUNDARY FLOW =                         GW BOUNDARY FLOW =                  


                                    OUT                                        OUT
                                    ---                                        ---
   EVAPOTRANSPIRATION =         804716.06     EVAPOTRANSPIRATION =          37118.94
           STREAMFLOW =         163309.88             STREAMFLOW =          10133.00
     GW BOUNDARY FLOW =            760.80       GW BOUNDARY FLOW =             36.37

   INFLOWS - OUTFLOWS =        -780353.87     INFLOWS - OUTFLOWS =         -47288.31
             --------                                   --------

 TOTAL STORAGE CHANGE =        -779826.63         STORAGE CHANGE =         -47296.43
       --------------                             --------------
         LAND SURFACE =          15977.62           LAND SURFACE =         -34861.64
            SOIL ZONE =          55566.00              SOIL ZONE =          -1277.79
     UNSATURATED ZONE =       -1087148.59       UNSATURATED ZONE =         -21840.32
       SATURATED ZONE =         235778.34         SATURATED ZONE =          10683.31

 OVERALL BUDGET ERROR =           -527.25           BUDGET ERROR =              8.12


  PERCENT DISCREPANCY =             -0.05    PERCENT DISCREPANCY =              0.02



1
 SUMMARY VOLUMETRIC BUDGET FOR GSFLOW 
 DATE: 10 28 1990              CUMULATIVE TIME STEP:      28
 MODFLOW STRESS PERIOD      2     CURRENT TIME STEP:      28     ITERATIONS:       7

 -----------------------------------------------------------------------------------

   CUMULATIVE VOLUMES               L**3   RATES FOR THIS TIME STEP           L**3/T
   ------------------                      ------------------------

                                     IN                                         IN
                                     --                                         --
        PRECIPITATION =         188432.87          PRECIPITATION =                  
           STREAMFLOW =                               STREAMFLOW =                  
     GW BOUNDARY FLOW =                         GW BOUNDARY FLOW =                  


                                    OUT                                        OUT
                                    ---                                        ---
   EVAPOTRANSPIRATION =         930503.67     EVAPOTRANSPIRATION =          11277.51
           STREAMFLOW =         224850.23             STREAMFLOW =           8969.01
     GW BOUNDARY FLOW =           1013.99       GW BOUNDARY FLOW =             36.13

   INFLOWS - OUTFLOWS =        -967935.02     INFLOWS - OUTFLOWS =         -20282.65
             --------                                   --------

 TOTAL STORAGE CHANGE =        -967394.09         STORAGE CHANGE =         -20280.88
       --------------                             --------------
         LAND SURFACE =                             LAND SURFACE =                  
            SOIL ZONE =          26474.06              SOIL ZONE =          -3292.00
     UNSATURATED ZONE =       -1271511.64       UNSATURATED ZONE =         -23163.51
       SATURATED ZONE =         277643.48         SATURATED ZONE =           6174.63

 OVERALL BUDGET ERROR =           -540.93           BUDGET ERROR =             -1.78


  PERCENT DISCREPANCY =             -0.05    PERCENT DISCREPANCY =             -0.01



1
 SUMMARY VOLUMETRIC BUDGET FOR GSFLOW 
 DATE: 11 04 1990              CUMULATIVE TIME STEP:       4
 MODFLOW STRESS PERIOD      3     CURRENT TIME STEP:      35     ITERATIONS:       6

 -----------------------------------------------------------------------------------

   CUMULATIVE VOLUMES               L**3   RATES FOR THIS TIME STEP           L**3/T
   ------------------                      ------------------------

                                     IN                                         IN
                                     --                                         --
        PRECIPITATION =         703113.06          PRECIPITATION =                  
           STREAMFLOW =                               STREAMFLOW =                  
     GW BOUNDARY FLOW =                         GW BOUNDARY FLOW =                  


                                    OUT                                        OUT
                                    ---                                        ---
   EVAPOTRANSPIRATION =         990342.41     EVAPOTRANSPIRATION =          26063.09
           STREAMFLOW =         295911.16             STREAMFLOW =          10656.37
     GW BOUNDARY FLOW =           1267.05       GW BOUNDARY FLOW =             36.14

   INFLOWS - OUTFLOWS =        -584407.56     INFLOWS - OUTFLOWS =         -36755.61
             --------                                   --------

 TOTAL STORAGE CHANGE =        -588794.72         STORAGE CHANGE =         -38025.88
       --------------                             --------------
         LAND SURFACE =          71009.70           LAND SURFACE =         -84159.07
            SOIL ZONE =         418916.52              SOIL ZONE =          56784.33
     UNSATURATED ZONE =       -1417073.01       UNSATURATED ZONE =         -20047.60
       SATURATED ZONE =         338352.06         SATURATED ZONE =           9396.46

 OVERALL BUDGET ERROR =           4387.16           BUDGET ERROR =           1270.28

  ***WARNING, FLUX RATES OFF > 3%

  PERCENT DISCREPANCY =              0.34    PERCENT DISCREPANCY =              3.40



1
 SUMMARY VOLUMETRIC BUDGET FOR GSFLOW 
 DATE: 11 11 1990              CUMULATIVE TIME STEP:      11
 MODFLOW STRESS PERIOD      3     CURRENT TIME STEP:      42     ITERATIONS:       6

 -----------------------------------------------------------------------------------

   CUMULATIVE VOLUMES               L**3   RATES FOR THIS TIME STEP           L**3/T
   ------------------                      ------------------------

                                     IN                                         IN
                                     --                                         --
        PRECIPITATION =         703113.06          PRECIPITATION =                  
           STREAMFLOW =                               STREAMFLOW =                  
     GW BOUNDARY FLOW =                         GW BOUNDARY FLOW =                  


                                    OUT                                        OUT
                                    ---                                        ---
   EVAPOTRANSPIRATION =        1063717.39     EVAPOTRANSPIRATION =          12398.92
           STREAMFLOW =         366948.08             STREAMFLOW =           9637.90
     GW BOUNDARY FLOW =           1519.15       GW BOUNDARY FLOW =             35.92

   INFLOWS - OUTFLOWS =        -729071.57     INFLOWS - OUTFLOWS =         -22072.74
             --------                                   --------

 TOTAL STORAGE CHANGE =        -733638.64         STORAGE CHANGE =         -22071.55
       --------------                             --------------
         LAND SURFACE =            295.92           LAND SURFACE =           -859.89
            SOIL ZONE =         435210.37              SOIL ZONE =          -6117.61
     UNSATURATED ZONE =       -1556747.63       UNSATURATED ZONE =         -19970.85
       SATURATED ZONE =         387602.68         SATURATED ZONE =           4876.79

 OVERALL BUDGET ERROR =           4567.07           BUDGET ERROR =             -1.19


  PERCENT DISCREPANCY =              0.32    PERCENT DISCREPANCY =             -0.01



1
 SUMMARY VOLUMETRIC BUDGET FOR GSFLOW 
 DATE: 11 18 1990              CUMULATIVE TIME STEP:      18
 MODFLOW STRESS PERIOD      3     CURRENT TIME STEP:      49     ITERATIONS:       6

 -----------------------------------------------------------------------------------

   CUMULATIVE VOLUMES               L**3   RATES FOR THIS TIME STEP           L**3/T
   ------------------                      ------------------------

                                     IN                                         IN
                                     --                                         --
        PRECIPITATION =         747883.35          PRECIPITATION =                  
           STREAMFLOW =                               STREAMFLOW =                  
     GW BOUNDARY FLOW =                         GW BOUNDARY FLOW =                  


                                    OUT                                        OUT
                                    ---                                        ---
   EVAPOTRANSPIRATION =        1133364.03     EVAPOTRANSPIRATION =           5430.41
           STREAMFLOW =         438730.05             STREAMFLOW =          10690.03
     GW BOUNDARY FLOW =           1770.47       GW BOUNDARY FLOW =             35.88

   INFLOWS - OUTFLOWS =        -825981.20     INFLOWS - OUTFLOWS =         -16156.33
             --------                                   --------

 TOTAL STORAGE CHANGE =        -830585.59         STORAGE CHANGE =         -16167.67
       --------------                             --------------
         LAND SURFACE =          10077.61           LAND SURFACE =          -4199.79
            SOIL ZONE =         417311.19              SOIL ZONE =           -687.72
     UNSATURATED ZONE =       -1690256.40       UNSATURATED ZONE =         -18629.95
       SATURATED ZONE =         432281.97         SATURATED ZONE =           7349.79

 OVERALL BUDGET ERROR =           4604.40           BUDGET ERROR =             11.35


  PERCENT DISCREPANCY =              0.29    PERCENT DISCREPANCY =              0.07



1
 SUMMARY VOLUMETRIC BUDGET FOR GSFLOW 
 DATE: 11 25 1990              CUMULATIVE TIME STEP:      25
 MODFLOW STRESS PERIOD      3     CURRENT TIME STEP:      56     ITERATIONS:       6

 -----------------------------------------------------------------------------------

   CUMULATIVE VOLUMES               L**3   RATES FOR THIS TIME STEP           L**3/T
   ------------------                      ------------------------

                                     IN                                         IN
                                     --                                         --
        PRECIPITATION =        1009043.38          PRECIPITATION =         186542.88
           STREAMFLOW =                               STREAMFLOW =                  
     GW BOUNDARY FLOW =                         GW BOUNDARY FLOW =                  


                                    OUT                                        OUT
                                    ---                                        ---
   EVAPOTRANSPIRATION =        1194117.63     EVAPOTRANSPIRATION =           3835.41
           STREAMFLOW =         514775.59             STREAMFLOW =          10885.82
     GW BOUNDARY FLOW =           2021.41       GW BOUNDARY FLOW =             35.79

   INFLOWS - OUTFLOWS =        -701871.25     INFLOWS - OUTFLOWS =         171785.85
             --------                                   --------

 TOTAL STORAGE CHANGE =        -708621.33         STORAGE CHANGE =         169933.57
       --------------                             --------------
         LAND SURFACE =          92124.67           LAND SURFACE =          75233.82
            SOIL ZONE =         535309.09              SOIL ZONE =         106282.72
     UNSATURATED ZONE =       -1817875.62       UNSATURATED ZONE =         -17925.06
       SATURATED ZONE =         481820.46         SATURATED ZONE =           6342.08

 OVERALL BUDGET ERROR =           6750.08           BUDGET ERROR =           1852.29


  PERCENT DISCREPANCY =              0.39    PERCENT DISCREPANCY =              1.00



1
 SUMMARY VOLUMETRIC BUDGET FOR GSFLOW 
 DATE: 12 02 1990              CUMULATIVE TIME STEP:       2
 MODFLOW STRESS PERIOD      4     CURRENT TIME STEP:      63     ITERATIONS:       6

 -----------------------------------------------------------------------------------

   CUMULATIVE VOLUMES               L**3   RATES FOR THIS TIME STEP           L**3/T
   ------------------                      ------------------------

                                     IN                                         IN
                                     --                                         --
        PRECIPITATION =        1449284.55          PRECIPITATION =                  
           STREAMFLOW =                               STREAMFLOW =                  
     GW BOUNDARY FLOW =                         GW BOUNDARY FLOW =                  


                                    OUT                                        OUT
                                    ---                                        ---
   EVAPOTRANSPIRATION =        1201687.09     EVAPOTRANSPIRATION =            374.89
           STREAMFLOW =         592023.50             STREAMFLOW =          11080.71
     GW BOUNDARY FLOW =           2271.90       GW BOUNDARY FLOW =             35.77

   INFLOWS - OUTFLOWS =        -346697.94     INFLOWS - OUTFLOWS =         -11491.37
             --------                                   --------

 TOTAL STORAGE CHANGE =        -354557.04         STORAGE CHANGE =         -11504.06
       --------------                             --------------
         LAND SURFACE =         493448.43           LAND SURFACE =           -453.37
            SOIL ZONE =         565883.28              SOIL ZONE =            120.77
     UNSATURATED ZONE =       -1940741.93       UNSATURATED ZONE =         -17258.89
       SATURATED ZONE =         526853.10         SATURATED ZONE =           6087.41

 OVERALL BUDGET ERROR =           7859.10           BUDGET ERROR =             12.69


  PERCENT DISCREPANCY =              0.44    PERCENT DISCREPANCY =              0.11



1
 SUMMARY VOLUMETRIC BUDGET FOR GSFLOW 
 DATE: 12 09 1990              CUMULATIVE TIME STEP:       9
 MODFLOW STRESS PERIOD      4     CURRENT TIME STEP:      70     ITERATIONS:       6

 -----------------------------------------------------------------------------------

   CUMULATIVE VOLUMES               L**3   RATES FOR THIS TIME STEP           L**3/T
   ------------------                      ------------------------

                                     IN                                         IN
                                     --                                         --
        PRECIPITATION =        1449284.55          PRECIPITATION =                  
           STREAMFLOW =                               STREAMFLOW =                  
     GW BOUNDARY FLOW =                         GW BOUNDARY FLOW =                  


                                    OUT                                        OUT
                                    ---                                        ---
   EVAPOTRANSPIRATION =        1280175.37     EVAPOTRANSPIRATION =          14145.36
           STREAMFLOW =         669763.49             STREAMFLOW =          10897.19
     GW BOUNDARY FLOW =           2521.86       GW BOUNDARY FLOW =             35.64

   INFLOWS - OUTFLOWS =        -503176.17     INFLOWS - OUTFLOWS =         -25078.20
             --------                                   --------

 TOTAL STORAGE CHANGE =        -515502.94         STORAGE CHANGE =         -25199.47
       --------------                             --------------
         LAND SURFACE =          66382.66           LAND SURFACE =         -46525.53
            SOIL ZONE =         913440.51              SOIL ZONE =          33964.22
     UNSATURATED ZONE =       -2058551.37       UNSATURATED ZONE =         -16494.25
       SATURATED ZONE =         563225.14         SATURATED ZONE =           3856.09

 OVERALL BUDGET ERROR =          12326.77           BUDGET ERROR =            121.27


  PERCENT DISCREPANCY =              0.63    PERCENT DISCREPANCY =              0.48



1
 SUMMARY VOLUMETRIC BUDGET FOR GSFLOW 
 DATE: 12 16 1990              CUMULATIVE TIME STEP:      16
 MODFLOW STRESS PERIOD      4     CURRENT TIME STEP:      77     ITERATIONS:       6

 -----------------------------------------------------------------------------------

   CUMULATIVE VOLUMES               L**3   RATES FOR THIS TIME STEP           L**3/T
   ------------------                      ------------------------

                                     IN                                         IN
                                     --                                         --
        PRECIPITATION =        1804962.84          PRECIPITATION =                  
           STREAMFLOW =                               STREAMFLOW =                  
     GW BOUNDARY FLOW =                         GW BOUNDARY FLOW =                  


                                    OUT                                        OUT
                                    ---                                        ---
   EVAPOTRANSPIRATION =        1308795.51     EVAPOTRANSPIRATION =                  
           STREAMFLOW =         749469.21             STREAMFLOW =          11518.55
     GW BOUNDARY FLOW =           2771.27       GW BOUNDARY FLOW =             35.61

   INFLOWS - OUTFLOWS =        -256073.15     INFLOWS - OUTFLOWS =         -11554.16
             --------                                   --------

 TOTAL STORAGE CHANGE =        -270692.12         STORAGE CHANGE =         -11569.22
       --------------                             --------------
         LAND SURFACE =         256077.36           LAND SURFACE =                  
            SOIL ZONE =        1051277.80              SOIL ZONE =            -28.23
     UNSATURATED ZONE =       -2171926.03       UNSATURATED ZONE =         -15944.59
       SATURATED ZONE =         593878.60         SATURATED ZONE =           4403.59

 OVERALL BUDGET ERROR =          14618.97           BUDGET ERROR =             15.06


  PERCENT DISCREPANCY =              0.71    PERCENT DISCREPANCY =              0.13



1
 SUMMARY VOLUMETRIC BUDGET FOR GSFLOW 
 DATE: 12 23 1990              CUMULATIVE TIME STEP:      23
 MODFLOW STRESS PERIOD      4     CURRENT TIME STEP:      84     ITERATIONS:       6

 -----------------------------------------------------------------------------------

   CUMULATIVE VOLUMES               L**3   RATES FOR THIS TIME STEP           L**3/T
   ------------------                      ------------------------

                                     IN                                         IN
                                     --                                         --
        PRECIPITATION =        2276236.55          PRECIPITATION =                  
           STREAMFLOW =                               STREAMFLOW =                  
     GW BOUNDARY FLOW =              0.08       GW BOUNDARY FLOW =              0.04


                                    OUT                                        OUT
                                    ---                                        ---
   EVAPOTRANSPIRATION =        1310170.23     EVAPOTRANSPIRATION =                  
           STREAMFLOW =         830299.48             STREAMFLOW =          11567.60
     GW BOUNDARY FLOW =           3020.31       GW BOUNDARY FLOW =             35.57

   INFLOWS - OUTFLOWS =         132746.62     INFLOWS - OUTFLOWS =         -11603.13
             --------                                   --------

 TOTAL STORAGE CHANGE =         118034.97         STORAGE CHANGE =         -11615.04
       --------------                             --------------
         LAND SURFACE =         725980.66           LAND SURFACE =                  
            SOIL ZONE =        1051421.96              SOIL ZONE =             49.89
     UNSATURATED ZONE =       -2281121.37       UNSATURATED ZONE =         -15351.60
       SATURATED ZONE =         621753.53         SATURATED ZONE =           3686.67

 OVERALL BUDGET ERROR =          14711.64           BUDGET ERROR =             11.91


  PERCENT DISCREPANCY =              0.65    PERCENT DISCREPANCY =              0.10



1
 SUMMARY VOLUMETRIC BUDGET FOR GSFLOW 
 DATE: 12 30 1990              CUMULATIVE TIME STEP:      30
 MODFLOW STRESS PERIOD      4     CURRENT TIME STEP:      91     ITERATIONS:       5

 -----------------------------------------------------------------------------------

   CUMULATIVE VOLUMES               L**3   RATES FOR THIS TIME STEP           L**3/T
   ------------------                      ------------------------

                                     IN                                         IN
                                     --                                         --
        PRECIPITATION =        2276236.55          PRECIPITATION =                  
           STREAMFLOW =                               STREAMFLOW =                  
     GW BOUNDARY FLOW =              0.77       GW BOUNDARY FLOW =              0.14


                                    OUT                                        OUT
                                    ---                                        ---
   EVAPOTRANSPIRATION =        1310922.87     EVAPOTRANSPIRATION =                  
           STREAMFLOW =         911542.00             STREAMFLOW =          11638.74
     GW BOUNDARY FLOW =           3269.42       GW BOUNDARY FLOW =             35.60

   INFLOWS - OUTFLOWS =          50503.03     INFLOWS - OUTFLOWS =         -11674.20
             --------                                   --------

 TOTAL STORAGE CHANGE =          35717.58         STORAGE CHANGE =         -11683.94
       --------------                             --------------
         LAND SURFACE =         725228.17           LAND SURFACE =                  
            SOIL ZONE =        1051970.69              SOIL ZONE =             97.32
     UNSATURATED ZONE =       -2386426.98       UNSATURATED ZONE =         -14806.86
       SATURATED ZONE =         644945.47         SATURATED ZONE =           3025.60

 OVERALL BUDGET ERROR =          14785.45           BUDGET ERROR =              9.73


  PERCENT DISCREPANCY =              0.65    PERCENT DISCREPANCY =              0.08



1
 SUMMARY VOLUMETRIC BUDGET FOR GSFLOW 
 DATE: 01 06 1991              CUMULATIVE TIME STEP:       6
 MODFLOW STRESS PERIOD      5     CURRENT TIME STEP:      98     ITERATIONS:       5

 -----------------------------------------------------------------------------------

   CUMULATIVE VOLUMES               L**3   RATES FOR THIS TIME STEP           L**3/T
   ------------------                      ------------------------

                                     IN                                         IN
                                     --                                         --
        PRECIPITATION =        2276236.55          PRECIPITATION =                  
           STREAMFLOW =                               STREAMFLOW =                  
     GW BOUNDARY FLOW =              2.09       GW BOUNDARY FLOW =              0.22


                                    OUT                                        OUT
                                    ---                                        ---
   EVAPOTRANSPIRATION =        1334200.55     EVAPOTRANSPIRATION =           2584.60
           STREAMFLOW =         993436.37             STREAMFLOW =          11737.70
     GW BOUNDARY FLOW =           3519.30       GW BOUNDARY FLOW =             35.75

   INFLOWS - OUTFLOWS =         -54917.58     INFLOWS - OUTFLOWS =         -14357.82
             --------                                   --------

 TOTAL STORAGE CHANGE =         -72173.41         STORAGE CHANGE =         -14484.84
       --------------                             --------------
         LAND SURFACE =         620283.30           LAND SURFACE =          -6112.33
            SOIL ZONE =        1131908.02              SOIL ZONE =           3501.59
     UNSATURATED ZONE =       -2487777.56       UNSATURATED ZONE =         -14237.54
       SATURATED ZONE =         663412.56         SATURATED ZONE =           2363.43

 OVERALL BUDGET ERROR =          17255.82           BUDGET ERROR =            127.03


  PERCENT DISCREPANCY =              0.74    PERCENT DISCREPANCY =              0.88



1
 SUMMARY VOLUMETRIC BUDGET FOR GSFLOW 
 DATE: 01 13 1991              CUMULATIVE TIME STEP:      13
 MODFLOW STRESS PERIOD      5     CURRENT TIME STEP:     105     ITERATIONS:       6

 -----------------------------------------------------------------------------------

   CUMULATIVE VOLUMES               L**3   RATES FOR THIS TIME STEP           L**3/T
   ------------------                      ------------------------

                                     IN                                         IN
                                     --                                         --
        PRECIPITATION =        2596386.94          PRECIPITATION =          10327.43
           STREAMFLOW =                               STREAMFLOW =                  
     GW BOUNDARY FLOW =              4.02       GW BOUNDARY FLOW =              0.31


                                    OUT                                        OUT
                                    ---                                        ---
   EVAPOTRANSPIRATION =        1394795.66     EVAPOTRANSPIRATION =          17394.99
           STREAMFLOW =        1075755.88             STREAMFLOW =          11732.44
     GW BOUNDARY FLOW =           3769.53       GW BOUNDARY FLOW =             35.73

   INFLOWS - OUTFLOWS =         122069.90     INFLOWS - OUTFLOWS =         -18835.42
             --------                                   --------

 TOTAL STORAGE CHANGE =          99794.54         STORAGE CHANGE =         -20120.64
       --------------                             --------------
         LAND SURFACE =         586364.86           LAND SURFACE =        -135127.18
            SOIL ZONE =        1422188.14              SOIL ZONE =         127608.89
     UNSATURATED ZONE =       -2585077.04       UNSATURATED ZONE =         -13714.11
       SATURATED ZONE =         676318.25         SATURATED ZONE =           1111.75

 OVERALL BUDGET ERROR =          22275.36           BUDGET ERROR =           1285.22

  ***WARNING, FLUX RATES OFF > 3%

  PERCENT DISCREPANCY =              0.86    PERCENT DISCREPANCY =              4.31



1
 SUMMARY VOLUMETRIC BUDGET FOR GSFLOW 
 DATE: 01 20 1991              CUMULATIVE TIME STEP:      20
 MODFLOW STRESS PERIOD      5     CURRENT TIME STEP:     112     ITERATIONS:       5

 -----------------------------------------------------------------------------------

   CUMULATIVE VOLUMES               L**3   RATES FOR THIS TIME STEP           L**3/T
   ------------------                      ------------------------

                                     IN                                         IN
                                     --                                         --
        PRECIPITATION =        2596386.94          PRECIPITATION =                  
           STREAMFLOW =                               STREAMFLOW =                  
     GW BOUNDARY FLOW =              6.55       GW BOUNDARY FLOW =              0.40


                                    OUT                                        OUT
                                    ---                                        ---
   EVAPOTRANSPIRATION =        1465466.07     EVAPOTRANSPIRATION =           1892.63
           STREAMFLOW =        1158915.94             STREAMFLOW =          11898.58
     GW BOUNDARY FLOW =           4019.74       GW BOUNDARY FLOW =             35.74

   INFLOWS - OUTFLOWS =         -32008.26     INFLOWS - OUTFLOWS =         -13826.57
             --------                                   --------

 TOTAL STORAGE CHANGE =         -55330.54         STORAGE CHANGE =         -13835.07
       --------------                             --------------
         LAND SURFACE =         422210.59           LAND SURFACE =           -295.67
            SOIL ZONE =        1515297.55              SOIL ZONE =          -1547.82
     UNSATURATED ZONE =       -2678482.66       UNSATURATED ZONE =         -13122.19
       SATURATED ZONE =         685643.59         SATURATED ZONE =           1130.59

 OVERALL BUDGET ERROR =          23322.28           BUDGET ERROR =              8.51


  PERCENT DISCREPANCY =              0.88    PERCENT DISCREPANCY =              0.06



1
 SUMMARY VOLUMETRIC BUDGET FOR GSFLOW 
 DATE: 01 27 1991              CUMULATIVE TIME STEP:      27
 MODFLOW STRESS PERIOD      5     CURRENT TIME STEP:     119     ITERATIONS:       5

 -----------------------------------------------------------------------------------

   CUMULATIVE VOLUMES               L**3   RATES FOR THIS TIME STEP           L**3/T
   ------------------                      ------------------------

                                     IN                                         IN
                                     --                                         --
        PRECIPITATION =        2596386.94          PRECIPITATION =                  
           STREAMFLOW =                               STREAMFLOW =                  
     GW BOUNDARY FLOW =              9.66       GW BOUNDARY FLOW =              0.48


                                    OUT                                        OUT
                                    ---                                        ---
   EVAPOTRANSPIRATION =        1487522.33     EVAPOTRANSPIRATION =           1239.77
           STREAMFLOW =        1242154.91             STREAMFLOW =          11917.80
     GW BOUNDARY FLOW =           4269.91       GW BOUNDARY FLOW =             35.74

   INFLOWS - OUTFLOWS =        -137550.55     INFLOWS - OUTFLOWS =         -13192.83
             --------                                   --------

 TOTAL STORAGE CHANGE =        -161131.49         STORAGE CHANGE =         -13192.69
       --------------                             --------------
         LAND SURFACE =         394226.40           LAND SURFACE =           -109.80
            SOIL ZONE =        1521905.17              SOIL ZONE =          -1027.12
     UNSATURATED ZONE =       -2768373.63       UNSATURATED ZONE =         -12622.13
       SATURATED ZONE =         691110.14         SATURATED ZONE =            566.35

 OVERALL BUDGET ERROR =          23580.94           BUDGET ERROR =             -0.14


  PERCENT DISCREPANCY =              0.86    PERCENT DISCREPANCY =             -0.00



1
 SUMMARY VOLUMETRIC BUDGET FOR GSFLOW 
 DATE: 02 03 1991              CUMULATIVE TIME STEP:       3
 MODFLOW STRESS PERIOD      6     CURRENT TIME STEP:     126     ITERATIONS:       6

 -----------------------------------------------------------------------------------

   CUMULATIVE VOLUMES               L**3   RATES FOR THIS TIME STEP           L**3/T
   ------------------                      ------------------------

                                     IN                                         IN
                                     --                                         --
        PRECIPITATION =        3228422.31          PRECIPITATION =          30459.53
           STREAMFLOW =                               STREAMFLOW =                  
     GW BOUNDARY FLOW =             13.31       GW BOUNDARY FLOW =              0.55


                                    OUT                                        OUT
                                    ---                                        ---
   EVAPOTRANSPIRATION =        1589882.84     EVAPOTRANSPIRATION =          20507.84
           STREAMFLOW =        1326911.46             STREAMFLOW =          12238.42
     GW BOUNDARY FLOW =           4520.01       GW BOUNDARY FLOW =             35.74

   INFLOWS - OUTFLOWS =         307121.31     INFLOWS - OUTFLOWS =          -2321.91
             --------                                   --------

 TOTAL STORAGE CHANGE =         276470.39         STORAGE CHANGE =          -2598.05
       --------------                             --------------
         LAND SURFACE =         184727.70           LAND SURFACE =         -28670.24
            SOIL ZONE =        2254740.83              SOIL ZONE =          38303.43
     UNSATURATED ZONE =       -2855058.77       UNSATURATED ZONE =         -12216.98
       SATURATED ZONE =         692060.12         SATURATED ZONE =            -14.27

 OVERALL BUDGET ERROR =          30650.93           BUDGET ERROR =            276.14


  PERCENT DISCREPANCY =              0.95    PERCENT DISCREPANCY =              0.84



1
 SUMMARY VOLUMETRIC BUDGET FOR GSFLOW 
 DATE: 02 10 1991              CUMULATIVE TIME STEP:      10
 MODFLOW STRESS PERIOD      6     CURRENT TIME STEP:     133     ITERATIONS:       5

 -----------------------------------------------------------------------------------

   CUMULATIVE VOLUMES               L**3   RATES FOR THIS TIME STEP           L**3/T
   ------------------                      ------------------------

                                     IN                                         IN
                                     --                                         --
        PRECIPITATION =        3510173.01          PRECIPITATION =                  
           STREAMFLOW =                               STREAMFLOW =                  
     GW BOUNDARY FLOW =             17.49       GW BOUNDARY FLOW =              0.63


                                    OUT                                        OUT
                                    ---                                        ---
   EVAPOTRANSPIRATION =        1756765.19     EVAPOTRANSPIRATION =          25852.42
           STREAMFLOW =        1412746.15             STREAMFLOW =          12120.19
     GW BOUNDARY FLOW =           4770.09       GW BOUNDARY FLOW =             35.72

   INFLOWS - OUTFLOWS =         335909.07     INFLOWS - OUTFLOWS =         -38007.70
             --------                                   --------

 TOTAL STORAGE CHANGE =         302262.80         STORAGE CHANGE =         -37961.71
       --------------                             --------------
         LAND SURFACE =          90050.80           LAND SURFACE =         -12330.62
            SOIL ZONE =        2460421.12              SOIL ZONE =         -13393.55
     UNSATURATED ZONE =       -2938270.94       UNSATURATED ZONE =         -11706.47
       SATURATED ZONE =         690061.23         SATURATED ZONE =           -531.08

 OVERALL BUDGET ERROR =          33646.27           BUDGET ERROR =            -45.99


  PERCENT DISCREPANCY =              0.96    PERCENT DISCREPANCY =             -0.12



1
 SUMMARY VOLUMETRIC BUDGET FOR GSFLOW 
 DATE: 02 17 1991              CUMULATIVE TIME STEP:      17
 MODFLOW STRESS PERIOD      6     CURRENT TIME STEP:     140     ITERATIONS:       5

 -----------------------------------------------------------------------------------

   CUMULATIVE VOLUMES               L**3   RATES FOR THIS TIME STEP           L**3/T
   ------------------                      ------------------------

                                     IN                                         IN
                                     --                                         --
        PRECIPITATION =        3510173.01          PRECIPITATION =                  
           STREAMFLOW =                               STREAMFLOW =                  
     GW BOUNDARY FLOW =             22.16       GW BOUNDARY FLOW =              0.70


                                    OUT                                        OUT
                                    ---                                        ---
   EVAPOTRANSPIRATION =        2000256.88     EVAPOTRANSPIRATION =          23256.91
           STREAMFLOW =        1497084.85             STREAMFLOW =          12049.31
     GW BOUNDARY FLOW =           5020.01       GW BOUNDARY FLOW =             35.68

   INFLOWS - OUTFLOWS =           7833.44     INFLOWS - OUTFLOWS =         -35341.19
             --------                                   --------

 TOTAL STORAGE CHANGE =         -25192.76         STORAGE CHANGE =         -35264.96
       --------------                             --------------
         LAND SURFACE =          18163.74           LAND SURFACE =          -1654.25
            SOIL ZONE =        2290291.02              SOIL ZONE =         -21508.74
     UNSATURATED ZONE =       -3017840.00       UNSATURATED ZONE =         -11052.09
       SATURATED ZONE =         684191.81         SATURATED ZONE =          -1049.88

 OVERALL BUDGET ERROR =          33026.20           BUDGET ERROR =            -76.24


  PERCENT DISCREPANCY =              0.94    PERCENT DISCREPANCY =             -0.22



1
 SUMMARY VOLUMETRIC BUDGET FOR GSFLOW 
 DATE: 02 24 1991              CUMULATIVE TIME STEP:      24
 MODFLOW STRESS PERIOD      6     CURRENT TIME STEP:     147     ITERATIONS:       5

 -----------------------------------------------------------------------------------

   CUMULATIVE VOLUMES               L**3   RATES FOR THIS TIME STEP           L**3/T
   ------------------                      ------------------------

                                     IN                                         IN
                                     --                                         --
        PRECIPITATION =        3510173.01          PRECIPITATION =                  
           STREAMFLOW =                               STREAMFLOW =                  
     GW BOUNDARY FLOW =             27.31       GW BOUNDARY FLOW =              0.76


                                    OUT                                        OUT
                                    ---                                        ---
   EVAPOTRANSPIRATION =        2216419.22     EVAPOTRANSPIRATION =          21963.27
           STREAMFLOW =        1580818.28             STREAMFLOW =          11931.72
     GW BOUNDARY FLOW =           5268.93       GW BOUNDARY FLOW =             35.48

   INFLOWS - OUTFLOWS =        -292306.11     INFLOWS - OUTFLOWS =         -33929.71
             --------                                   --------

 TOTAL STORAGE CHANGE =        -324623.37         STORAGE CHANGE =         -33855.31
       --------------                             --------------
         LAND SURFACE =           6686.42           LAND SURFACE =           -239.07
            SOIL ZONE =        2087663.98              SOIL ZONE =         -21359.13
     UNSATURATED ZONE =       -3093552.01       UNSATURATED ZONE =         -10649.04
       SATURATED ZONE =         674577.47         SATURATED ZONE =          -1608.09

 OVERALL BUDGET ERROR =          32317.26           BUDGET ERROR =            -74.40


  PERCENT DISCREPANCY =              0.85    PERCENT DISCREPANCY =             -0.22



1
 SUMMARY VOLUMETRIC BUDGET FOR GSFLOW 
 DATE: 03 03 1991              CUMULATIVE TIME STEP:       3
 MODFLOW STRESS PERIOD      7     CURRENT TIME STEP:     154     ITERATIONS:       5

 -----------------------------------------------------------------------------------

   CUMULATIVE VOLUMES               L**3   RATES FOR THIS TIME STEP           L**3/T
   ------------------                      ------------------------

                                     IN                                         IN
                                     --                                         --
        PRECIPITATION =        6220189.63          PRECIPITATION =        1243187.24
           STREAMFLOW =                               STREAMFLOW =                  
     GW BOUNDARY FLOW =             32.91       GW BOUNDARY FLOW =              0.83


                                    OUT                                        OUT
                                    ---                                        ---
   EVAPOTRANSPIRATION =        2368619.51     EVAPOTRANSPIRATION =           8011.66
           STREAMFLOW =        1664129.43             STREAMFLOW =          12195.17
     GW BOUNDARY FLOW =           5516.62       GW BOUNDARY FLOW =             35.33

   INFLOWS - OUTFLOWS =        2181956.99     INFLOWS - OUTFLOWS =        1222945.91
             --------                                   --------

 TOTAL STORAGE CHANGE =        2143386.53         STORAGE CHANGE =        1216240.86
       --------------                             --------------
         LAND SURFACE =        2505904.36           LAND SURFACE =        1046748.89
            SOIL ZONE =        2144265.28              SOIL ZONE =         182164.25
     UNSATURATED ZONE =       -3166375.95       UNSATURATED ZONE =         -10276.69
       SATURATED ZONE =         659591.98         SATURATED ZONE =          -2395.61

 OVERALL BUDGET ERROR =          38570.47           BUDGET ERROR =           6705.06


  PERCENT DISCREPANCY =              0.62    PERCENT DISCREPANCY =              0.54



1
 SUMMARY VOLUMETRIC BUDGET FOR GSFLOW 
 DATE: 03 10 1991              CUMULATIVE TIME STEP:      10
 MODFLOW STRESS PERIOD      7     CURRENT TIME STEP:     161     ITERATIONS:       5

 -----------------------------------------------------------------------------------

   CUMULATIVE VOLUMES               L**3   RATES FOR THIS TIME STEP           L**3/T
   ------------------                      ------------------------

                                     IN                                         IN
                                     --                                         --
        PRECIPITATION =        8746030.42          PRECIPITATION =          32888.55
           STREAMFLOW =                               STREAMFLOW =                  
     GW BOUNDARY FLOW =             38.95       GW BOUNDARY FLOW =              0.89


                                    OUT                                        OUT
                                    ---                                        ---
   EVAPOTRANSPIRATION =        2427754.47     EVAPOTRANSPIRATION =           8408.65
           STREAMFLOW =        1764889.97             STREAMFLOW =          12907.36
     GW BOUNDARY FLOW =           5763.94       GW BOUNDARY FLOW =             35.24

   INFLOWS - OUTFLOWS =        4547661.00     INFLOWS - OUTFLOWS =          11538.18
             --------                                   --------

 TOTAL STORAGE CHANGE =        4477944.07         STORAGE CHANGE =          10717.07
       --------------                             --------------
         LAND SURFACE =        3082070.49           LAND SURFACE =            535.10
            SOIL ZONE =        3956261.07              SOIL ZONE =          17050.63
     UNSATURATED ZONE =       -3207256.13       UNSATURATED ZONE =          -4809.27
       SATURATED ZONE =         646867.58         SATURATED ZONE =          -2059.43

 OVERALL BUDGET ERROR =          69716.93           BUDGET ERROR =            821.11


  PERCENT DISCREPANCY =              0.80    PERCENT DISCREPANCY =              2.53



1
 SUMMARY VOLUMETRIC BUDGET FOR GSFLOW 
 DATE: 03 17 1991              CUMULATIVE TIME STEP:      17
 MODFLOW STRESS PERIOD      7     CURRENT TIME STEP:     168     ITERATIONS:       5

 -----------------------------------------------------------------------------------

   CUMULATIVE VOLUMES               L**3   RATES FOR THIS TIME STEP           L**3/T
   ------------------                      ------------------------

                                     IN                                         IN
                                     --                                         --
        PRECIPITATION =        9897129.71          PRECIPITATION =         157865.04
           STREAMFLOW =                               STREAMFLOW =                  
     GW BOUNDARY FLOW =             45.42       GW BOUNDARY FLOW =              0.95


                                    OUT                                        OUT
                                    ---                                        ---
   EVAPOTRANSPIRATION =        2453431.23     EVAPOTRANSPIRATION =           7593.17
           STREAMFLOW =        1853346.08             STREAMFLOW =          12500.82
     GW BOUNDARY FLOW =           6010.01       GW BOUNDARY FLOW =             35.09

   INFLOWS - OUTFLOWS =        5584387.81     INFLOWS - OUTFLOWS =         137736.92
             --------                                   --------

 TOTAL STORAGE CHANGE =        5514860.93         STORAGE CHANGE =         137781.78
       --------------                             --------------
         LAND SURFACE =        4232943.09           LAND SURFACE =         157846.09
            SOIL ZONE =        3892998.79              SOIL ZONE =         -12583.95
     UNSATURATED ZONE =       -3241330.49       UNSATURATED ZONE =          -4897.89
       SATURATED ZONE =         630248.29         SATURATED ZONE =          -2582.50

 OVERALL BUDGET ERROR =          69526.89           BUDGET ERROR =            -44.85


  PERCENT DISCREPANCY =              0.70    PERCENT DISCREPANCY =             -0.03



1
 SUMMARY VOLUMETRIC BUDGET FOR GSFLOW 
 DATE: 03 24 1991              CUMULATIVE TIME STEP:      24
 MODFLOW STRESS PERIOD      7     CURRENT TIME STEP:     175     ITERATIONS:       5

 -----------------------------------------------------------------------------------

   CUMULATIVE VOLUMES               L**3   RATES FOR THIS TIME STEP           L**3/T
   ------------------                      ------------------------

                                     IN                                         IN
                                     --                                         --
        PRECIPITATION =        1.1673D+07          PRECIPITATION =        1230031.83
           STREAMFLOW =                               STREAMFLOW =                  
     GW BOUNDARY FLOW =             52.29       GW BOUNDARY FLOW =              1.01


                                    OUT                                        OUT
                                    ---                                        ---
   EVAPOTRANSPIRATION =        2489012.53     EVAPOTRANSPIRATION =           4146.99
           STREAMFLOW =        1940349.40             STREAMFLOW =          12387.45
     GW BOUNDARY FLOW =           6255.03       GW BOUNDARY FLOW =             34.94

   INFLOWS - OUTFLOWS =        7237546.84     INFLOWS - OUTFLOWS =        1213463.46
             --------                                   --------

 TOTAL STORAGE CHANGE =        7167761.51         STORAGE CHANGE =        1213478.35
       --------------                             --------------
         LAND SURFACE =        6001644.06           LAND SURFACE =        1230031.83
            SOIL ZONE =        3832379.53              SOIL ZONE =          -8413.69
     UNSATURATED ZONE =       -3276773.29       UNSATURATED ZONE =          -5146.32
       SATURATED ZONE =         610509.74         SATURATED ZONE =          -2993.51

 OVERALL BUDGET ERROR =          69785.33           BUDGET ERROR =            -14.89


  PERCENT DISCREPANCY =              0.60    PERCENT DISCREPANCY =             -0.00



1
 SUMMARY VOLUMETRIC BUDGET FOR GSFLOW 
 DATE: 03 31 1991              CUMULATIVE TIME STEP:      31
 MODFLOW STRESS PERIOD      7     CURRENT TIME STEP:     182     ITERATIONS:       5

 -----------------------------------------------------------------------------------

   CUMULATIVE VOLUMES               L**3   RATES FOR THIS TIME STEP           L**3/T
   ------------------                      ------------------------

                                     IN                                         IN
                                     --                                         --
        PRECIPITATION =        1.2495D+07          PRECIPITATION =                  
           STREAMFLOW =                               STREAMFLOW =                  
     GW BOUNDARY FLOW =             59.57       GW BOUNDARY FLOW =              1.06


                                    OUT                                        OUT
                                    ---                                        ---
   EVAPOTRANSPIRATION =        2597305.50     EVAPOTRANSPIRATION =          44704.55
           STREAMFLOW =        2026966.30             STREAMFLOW =          12375.97
     GW BOUNDARY FLOW =           6499.09       GW BOUNDARY FLOW =             34.81

   INFLOWS - OUTFLOWS =        7864613.96     INFLOWS - OUTFLOWS =         -57114.27
             --------                                   --------

 TOTAL STORAGE CHANGE =        7790658.92         STORAGE CHANGE =         -59799.62
       --------------                             --------------
         LAND SURFACE =        6627859.43           LAND SURFACE =        -109529.99
            SOIL ZONE =        3886509.23              SOIL ZONE =          57263.74
     UNSATURATED ZONE =       -3311415.74       UNSATURATED ZONE =          -4110.31
       SATURATED ZONE =         587704.34         SATURATED ZONE =          -3423.10

 OVERALL BUDGET ERROR =          73955.04           BUDGET ERROR =           2685.36

  ***WARNING, FLUX RATES OFF > 3%

  PERCENT DISCREPANCY =              0.59    PERCENT DISCREPANCY =              4.59



1
 SUMMARY VOLUMETRIC BUDGET FOR GSFLOW 
 DATE: 04 07 1991              CUMULATIVE TIME STEP:       7
 MODFLOW STRESS PERIOD      8     CURRENT TIME STEP:     189     ITERATIONS:       6

 -----------------------------------------------------------------------------------

   CUMULATIVE VOLUMES               L**3   RATES FOR THIS TIME STEP           L**3/T
   ------------------                      ------------------------

                                     IN                                         IN
                                     --                                         --
        PRECIPITATION =        1.3018D+07          PRECIPITATION =                  
           STREAMFLOW =                               STREAMFLOW =                  
     GW BOUNDARY FLOW =             67.22       GW BOUNDARY FLOW =              1.12


                                    OUT                                        OUT
                                    ---                                        ---
   EVAPOTRANSPIRATION =        2884618.32     EVAPOTRANSPIRATION =          13551.18
           STREAMFLOW =        2119466.97             STREAMFLOW =          13884.06
     GW BOUNDARY FLOW =           6742.54       GW BOUNDARY FLOW =             34.76

   INFLOWS - OUTFLOWS =        8006976.13     INFLOWS - OUTFLOWS =         -27468.89
             --------                                   --------

 TOTAL STORAGE CHANGE =        7902142.60         STORAGE CHANGE =         -28722.49
       --------------                             --------------
         LAND SURFACE =        5127084.68           LAND SURFACE =         -59307.30
            SOIL ZONE =        5506585.10              SOIL ZONE =          24660.37
     UNSATURATED ZONE =       -3297003.48       UNSATURATED ZONE =           8746.31
       SATURATED ZONE =         565474.35         SATURATED ZONE =          -2821.91

 OVERALL BUDGET ERROR =         104833.53           BUDGET ERROR =           1253.59

  ***WARNING, FLUX RATES OFF > 3%

  PERCENT DISCREPANCY =              0.81    PERCENT DISCREPANCY =              4.46



1
 SUMMARY VOLUMETRIC BUDGET FOR GSFLOW 
 DATE: 04 14 1991              CUMULATIVE TIME STEP:      14
 MODFLOW STRESS PERIOD      8     CURRENT TIME STEP:     196     ITERATIONS:       5

 -----------------------------------------------------------------------------------

   CUMULATIVE VOLUMES               L**3   RATES FOR THIS TIME STEP           L**3/T
   ------------------                      ------------------------

                                     IN                                         IN
                                     --                                         --
        PRECIPITATION =        1.3018D+07          PRECIPITATION =                  
           STREAMFLOW =                               STREAMFLOW =                  
     GW BOUNDARY FLOW =             75.24       GW BOUNDARY FLOW =              1.17


                                    OUT                                        OUT
                                    ---                                        ---
   EVAPOTRANSPIRATION =        3054453.62     EVAPOTRANSPIRATION =          38933.91
           STREAMFLOW =        2214991.28             STREAMFLOW =          13600.29
     GW BOUNDARY FLOW =           6985.41       GW BOUNDARY FLOW =             34.65

   INFLOWS - OUTFLOWS =        7741381.67     INFLOWS - OUTFLOWS =         -52567.68
             --------                                   --------

 TOTAL STORAGE CHANGE =        7625378.96         STORAGE CHANGE =         -55537.12
       --------------                             --------------
         LAND SURFACE =        4519797.60           LAND SURFACE =        -171937.20
            SOIL ZONE =        5780579.13              SOIL ZONE =         107087.73
     UNSATURATED ZONE =       -3221321.52       UNSATURATED ZONE =          12062.38
       SATURATED ZONE =         546321.50         SATURATED ZONE =          -2750.08

 OVERALL BUDGET ERROR =         116002.71           BUDGET ERROR =           2969.44

  ***WARNING, FLUX RATES OFF > 3%

  PERCENT DISCREPANCY =              0.90    PERCENT DISCREPANCY =              5.49



1
 SUMMARY VOLUMETRIC BUDGET FOR GSFLOW 
 DATE: 04 21 1991              CUMULATIVE TIME STEP:      21
 MODFLOW STRESS PERIOD      8     CURRENT TIME STEP:     203     ITERATIONS:       6

 -----------------------------------------------------------------------------------

   CUMULATIVE VOLUMES               L**3   RATES FOR THIS TIME STEP           L**3/T
   ------------------                      ------------------------

                                     IN                                         IN
                                     --                                         --
        PRECIPITATION =        1.3034D+07          PRECIPITATION =                  
           STREAMFLOW =                               STREAMFLOW =                  
     GW BOUNDARY FLOW =             83.61       GW BOUNDARY FLOW =              1.22


                                    OUT                                        OUT
                                    ---                                        ---
   EVAPOTRANSPIRATION =        3286132.36     EVAPOTRANSPIRATION =          43440.72
           STREAMFLOW =        2312001.20             STREAMFLOW =          14278.14
     GW BOUNDARY FLOW =           7227.62       GW BOUNDARY FLOW =             34.57

   INFLOWS - OUTFLOWS =        7428784.53     INFLOWS - OUTFLOWS =         -57752.20
             --------                                   --------

 TOTAL STORAGE CHANGE =        7296554.19         STORAGE CHANGE =         -60436.08
       --------------                             --------------
         LAND SURFACE =        3417717.42           LAND SURFACE =        -214591.82
            SOIL ZONE =        6470738.74              SOIL ZONE =         139289.48
     UNSATURATED ZONE =       -3120778.69       UNSATURATED ZONE =          17280.78
       SATURATED ZONE =         528874.12         SATURATED ZONE =          -2414.58

 OVERALL BUDGET ERROR =         132230.34           BUDGET ERROR =           2683.88

  ***WARNING, FLUX RATES OFF > 3%

  PERCENT DISCREPANCY =              1.02    PERCENT DISCREPANCY =              4.54



1
 SUMMARY VOLUMETRIC BUDGET FOR GSFLOW 
 DATE: 04 28 1991              CUMULATIVE TIME STEP:      28
 MODFLOW STRESS PERIOD      8     CURRENT TIME STEP:     210     ITERATIONS:       8

 -----------------------------------------------------------------------------------

   CUMULATIVE VOLUMES               L**3   RATES FOR THIS TIME STEP           L**3/T
   ------------------                      ------------------------

                                     IN                                         IN
                                     --                                         --
        PRECIPITATION =        1.3303D+07          PRECIPITATION =                  
           STREAMFLOW =                               STREAMFLOW =                  
     GW BOUNDARY FLOW =             92.32       GW BOUNDARY FLOW =              1.26


                                    OUT                                        OUT
                                    ---                                        ---
   EVAPOTRANSPIRATION =        3532989.79     EVAPOTRANSPIRATION =          55257.26
           STREAMFLOW =        2411371.59             STREAMFLOW =          13851.68
     GW BOUNDARY FLOW =           7469.11       GW BOUNDARY FLOW =             34.44

   INFLOWS - OUTFLOWS =        7351692.33     INFLOWS - OUTFLOWS =         -69142.12
             --------                                   --------

 TOTAL STORAGE CHANGE =        7208813.42         STORAGE CHANGE =         -70185.87
       --------------                             --------------
         LAND SURFACE =        2828492.52           LAND SURFACE =        -115203.82
            SOIL ZONE =        6849250.77              SOIL ZONE =          26652.55
     UNSATURATED ZONE =       -2984294.71       UNSATURATED ZONE =          20015.91
       SATURATED ZONE =         515361.86         SATURATED ZONE =          -1650.58

 OVERALL BUDGET ERROR =         142878.92           BUDGET ERROR =           1043.75


  PERCENT DISCREPANCY =              1.08    PERCENT DISCREPANCY =              1.50



1
 SUMMARY VOLUMETRIC BUDGET FOR GSFLOW 
 DATE: 05 05 1991              CUMULATIVE TIME STEP:       5
 MODFLOW STRESS PERIOD      9     CURRENT TIME STEP:     217     ITERATIONS:       7

 -----------------------------------------------------------------------------------

   CUMULATIVE VOLUMES               L**3   RATES FOR THIS TIME STEP           L**3/T
   ------------------                      ------------------------

                                     IN                                         IN
                                     --                                         --
        PRECIPITATION =        1.3510D+07          PRECIPITATION =                  
           STREAMFLOW =                               STREAMFLOW =                  
     GW BOUNDARY FLOW =            101.34       GW BOUNDARY FLOW =              1.31


                                    OUT                                        OUT
                                    ---                                        ---
   EVAPOTRANSPIRATION =        3881925.87     EVAPOTRANSPIRATION =          84781.61
           STREAMFLOW =        2508383.70             STREAMFLOW =          13826.23
     GW BOUNDARY FLOW =           7709.76       GW BOUNDARY FLOW =             34.31

   INFLOWS - OUTFLOWS =        7111790.15     INFLOWS - OUTFLOWS =         -98640.84
             --------                                   --------

 TOTAL STORAGE CHANGE =        6961482.44         STORAGE CHANGE =         -99767.50
       --------------                             --------------
         LAND SURFACE =        2164321.68           LAND SURFACE =        -169194.91
            SOIL ZONE =        7128925.45              SOIL ZONE =          48539.44
     UNSATURATED ZONE =       -2836990.27       UNSATURATED ZONE =          22206.23
       SATURATED ZONE =         505222.19         SATURATED ZONE =          -1318.32

 OVERALL BUDGET ERROR =         150307.71           BUDGET ERROR =           1126.66


  PERCENT DISCREPANCY =              1.12    PERCENT DISCREPANCY =              1.14



1
 SUMMARY VOLUMETRIC BUDGET FOR GSFLOW 
 DATE: 05 12 1991              CUMULATIVE TIME STEP:      12
 MODFLOW STRESS PERIOD      9     CURRENT TIME STEP:     224     ITERATIONS:       7

 -----------------------------------------------------------------------------------

   CUMULATIVE VOLUMES               L**3   RATES FOR THIS TIME STEP           L**3/T
   ------------------                      ------------------------

                                     IN                                         IN
                                     --                                         --
        PRECIPITATION =        1.4029D+07          PRECIPITATION =                  
           STREAMFLOW =                               STREAMFLOW =                  
     GW BOUNDARY FLOW =            110.66       GW BOUNDARY FLOW =              1.35


                                    OUT                                        OUT
                                    ---                                        ---
   EVAPOTRANSPIRATION =        4251721.17     EVAPOTRANSPIRATION =          62580.99
           STREAMFLOW =        2607570.46             STREAMFLOW =          14253.34
     GW BOUNDARY FLOW =           7949.22       GW BOUNDARY FLOW =             34.13

   INFLOWS - OUTFLOWS =        7162091.96     INFLOWS - OUTFLOWS =         -76867.12
             --------                                   --------

 TOTAL STORAGE CHANGE =        7003484.98         STORAGE CHANGE =         -78121.38
       --------------                             --------------
         LAND SURFACE =        1719829.12           LAND SURFACE =        -195667.44
            SOIL ZONE =        7462418.69              SOIL ZONE =          95232.58
     UNSATURATED ZONE =       -2678392.48       UNSATURATED ZONE =          23070.90
       SATURATED ZONE =         499625.83         SATURATED ZONE =           -757.47

 OVERALL BUDGET ERROR =         158606.98           BUDGET ERROR =           1254.25


  PERCENT DISCREPANCY =              1.14    PERCENT DISCREPANCY =              1.62



1
 SUMMARY VOLUMETRIC BUDGET FOR GSFLOW 
 DATE: 05 19 1991              CUMULATIVE TIME STEP:      19
 MODFLOW STRESS PERIOD      9     CURRENT TIME STEP:     231     ITERATIONS:       9

 -----------------------------------------------------------------------------------

   CUMULATIVE VOLUMES               L**3   RATES FOR THIS TIME STEP           L**3/T
   ------------------                      ------------------------

                                     IN                                         IN
                                     --                                         --
        PRECIPITATION =        1.4365D+07          PRECIPITATION =                  
           STREAMFLOW =                               STREAMFLOW =                  
     GW BOUNDARY FLOW =            118.88       GW BOUNDARY FLOW =              0.87


                                    OUT                                        OUT
                                    ---                                        ---
   EVAPOTRANSPIRATION =        4651668.27     EVAPOTRANSPIRATION =          17977.42
           STREAMFLOW =        2708245.16             STREAMFLOW =          14424.70
     GW BOUNDARY FLOW =           8187.47       GW BOUNDARY FLOW =             33.96

   INFLOWS - OUTFLOWS =        6997396.29     INFLOWS - OUTFLOWS =         -32435.21
             --------                                   --------

 TOTAL STORAGE CHANGE =        6834017.30         STORAGE CHANGE =         -32456.20
       --------------                             --------------
         LAND SURFACE =        1168636.63           LAND SURFACE =         -21196.61
            SOIL ZONE =        7683735.11              SOIL ZONE =         -33509.40
     UNSATURATED ZONE =       -2516511.19       UNSATURATED ZONE =          21939.34
       SATURATED ZONE =         498152.49         SATURATED ZONE =            310.41

 OVERALL BUDGET ERROR =         163378.99           BUDGET ERROR =             20.99


  PERCENT DISCREPANCY =              1.14    PERCENT DISCREPANCY =              0.06



1
 SUMMARY VOLUMETRIC BUDGET FOR GSFLOW 
 DATE: 05 26 1991              CUMULATIVE TIME STEP:      26
 MODFLOW STRESS PERIOD      9     CURRENT TIME STEP:     238     ITERATIONS:       8

 -----------------------------------------------------------------------------------

   CUMULATIVE VOLUMES               L**3   RATES FOR THIS TIME STEP           L**3/T
   ------------------                      ------------------------

                                     IN                                         IN
                                     --                                         --
        PRECIPITATION =        1.4426D+07          PRECIPITATION =                  
           STREAMFLOW =                               STREAMFLOW =                  
     GW BOUNDARY FLOW =            122.43       GW BOUNDARY FLOW =              0.31


                                    OUT                                        OUT
                                    ---                                        ---
   EVAPOTRANSPIRATION =        5298740.86     EVAPOTRANSPIRATION =          71058.48
           STREAMFLOW =        2809594.23             STREAMFLOW =          14057.35
     GW BOUNDARY FLOW =           8424.57       GW BOUNDARY FLOW =             33.79

   INFLOWS - OUTFLOWS =        6309860.38     INFLOWS - OUTFLOWS =         -85149.31
             --------                                   --------

 TOTAL STORAGE CHANGE =        6146260.99         STORAGE CHANGE =         -85117.71
       --------------                             --------------
         LAND SURFACE =         620424.11           LAND SURFACE =         -40812.89
            SOIL ZONE =        7392366.24              SOIL ZONE =         -64364.75
     UNSATURATED ZONE =       -2367850.62       UNSATURATED ZONE =          19555.58
       SATURATED ZONE =         501316.55         SATURATED ZONE =            504.29

 OVERALL BUDGET ERROR =         163599.39           BUDGET ERROR =            -31.61


  PERCENT DISCREPANCY =              1.14    PERCENT DISCREPANCY =             -0.04



1
 SUMMARY VOLUMETRIC BUDGET FOR GSFLOW 
 DATE: 06 02 1991              CUMULATIVE TIME STEP:       2
 MODFLOW STRESS PERIOD     10     CURRENT TIME STEP:     245     ITERATIONS:       8

 -----------------------------------------------------------------------------------

   CUMULATIVE VOLUMES               L**3   RATES FOR THIS TIME STEP           L**3/T
   ------------------                      ------------------------

                                     IN                                         IN
                                     --                                         --
        PRECIPITATION =        1.4671D+07          PRECIPITATION =                  
           STREAMFLOW =                               STREAMFLOW =                  
     GW BOUNDARY FLOW =            123.27       GW BOUNDARY FLOW =        2.6386D-03


                                    OUT                                        OUT
                                    ---                                        ---
   EVAPOTRANSPIRATION =        5843442.73     EVAPOTRANSPIRATION =         119336.76
           STREAMFLOW =        2908309.85             STREAMFLOW =          13893.25
     GW BOUNDARY FLOW =           8660.48       GW BOUNDARY FLOW =             33.65

   INFLOWS - OUTFLOWS =        5910685.01     INFLOWS - OUTFLOWS =        -133263.66
             --------                                   --------

 TOTAL STORAGE CHANGE =        5747041.64         STORAGE CHANGE =        -132256.95
       --------------                             --------------
         LAND SURFACE =         358942.21           LAND SURFACE =         -46420.51
            SOIL ZONE =        7126785.40              SOIL ZONE =        -103034.13
     UNSATURATED ZONE =       -2244416.14       UNSATURATED ZONE =          16714.83
       SATURATED ZONE =         505725.02         SATURATED ZONE =            482.79

 OVERALL BUDGET ERROR =         163643.37           BUDGET ERROR =          -1006.71


  PERCENT DISCREPANCY =              1.12    PERCENT DISCREPANCY =             -0.76



1
 SUMMARY VOLUMETRIC BUDGET FOR GSFLOW 
 DATE: 06 09 1991              CUMULATIVE TIME STEP:       9
 MODFLOW STRESS PERIOD     10     CURRENT TIME STEP:     252     ITERATIONS:       6

 -----------------------------------------------------------------------------------

   CUMULATIVE VOLUMES               L**3   RATES FOR THIS TIME STEP           L**3/T
   ------------------                      ------------------------

                                     IN                                         IN
                                     --                                         --
        PRECIPITATION =        1.4671D+07          PRECIPITATION =                  
           STREAMFLOW =                               STREAMFLOW =                  
     GW BOUNDARY FLOW =            123.28       GW BOUNDARY FLOW =                  


                                    OUT                                        OUT
                                    ---                                        ---
   EVAPOTRANSPIRATION =        6559457.44     EVAPOTRANSPIRATION =         166448.98
           STREAMFLOW =        3004497.04             STREAMFLOW =          13481.04
     GW BOUNDARY FLOW =           8896.51       GW BOUNDARY FLOW =             33.76

   INFLOWS - OUTFLOWS =        5098247.09     INFLOWS - OUTFLOWS =        -179963.79
             --------                                   --------

 TOTAL STORAGE CHANGE =        4941391.69         STORAGE CHANGE =        -178397.00
       --------------                             --------------
         LAND SURFACE =         151647.51           LAND SURFACE =         -33724.69
            SOIL ZONE =        6431200.60              SOIL ZONE =        -155622.58
     UNSATURATED ZONE =       -2148619.99       UNSATURATED ZONE =          11059.95
       SATURATED ZONE =         507157.95         SATURATED ZONE =           -109.75

 OVERALL BUDGET ERROR =         156855.40           BUDGET ERROR =          -1566.78


  PERCENT DISCREPANCY =              1.07    PERCENT DISCREPANCY =             -0.87



1
 SUMMARY VOLUMETRIC BUDGET FOR GSFLOW 
 DATE: 06 16 1991              CUMULATIVE TIME STEP:      16
 MODFLOW STRESS PERIOD     10     CURRENT TIME STEP:     259     ITERATIONS:       6

 -----------------------------------------------------------------------------------

   CUMULATIVE VOLUMES               L**3   RATES FOR THIS TIME STEP           L**3/T
   ------------------                      ------------------------

                                     IN                                         IN
                                     --                                         --
        PRECIPITATION =        1.4671D+07          PRECIPITATION =                  
           STREAMFLOW =                               STREAMFLOW =                  
     GW BOUNDARY FLOW =            123.28       GW BOUNDARY FLOW =                  


                                    OUT                                        OUT
                                    ---                                        ---
   EVAPOTRANSPIRATION =        7520120.41     EVAPOTRANSPIRATION =         109233.09
           STREAMFLOW =        3097766.41             STREAMFLOW =          13258.09
     GW BOUNDARY FLOW =           9132.85       GW BOUNDARY FLOW =             33.73

   INFLOWS - OUTFLOWS =        4044078.41     INFLOWS - OUTFLOWS =        -122524.91
             --------                                   --------

 TOTAL STORAGE CHANGE =        3896453.68         STORAGE CHANGE =        -121495.89
       --------------                             --------------
         LAND SURFACE =          42141.08           LAND SURFACE =          -7293.27
            SOIL ZONE =        5460894.14              SOIL ZONE =        -115727.63
     UNSATURATED ZONE =       -2110279.60       UNSATURATED ZONE =           2259.34
       SATURATED ZONE =         503691.97         SATURATED ZONE =           -734.39

 OVERALL BUDGET ERROR =         147624.74           BUDGET ERROR =          -1029.03


  PERCENT DISCREPANCY =              1.01    PERCENT DISCREPANCY =             -0.84



1
 SUMMARY VOLUMETRIC BUDGET FOR GSFLOW 
 DATE: 06 23 1991              CUMULATIVE TIME STEP:      23
 MODFLOW STRESS PERIOD     10     CURRENT TIME STEP:     266     ITERATIONS:       6

 -----------------------------------------------------------------------------------

   CUMULATIVE VOLUMES               L**3   RATES FOR THIS TIME STEP           L**3/T
   ------------------                      ------------------------

                                     IN                                         IN
                                     --                                         --
        PRECIPITATION =        1.4671D+07          PRECIPITATION =                  
           STREAMFLOW =                               STREAMFLOW =                  
     GW BOUNDARY FLOW =            123.28       GW BOUNDARY FLOW =                  


                                    OUT                                        OUT
                                    ---                                        ---
   EVAPOTRANSPIRATION =        8016571.44     EVAPOTRANSPIRATION =          37021.17
           STREAMFLOW =        3190104.65             STREAMFLOW =          13193.00
     GW BOUNDARY FLOW =           9368.59       GW BOUNDARY FLOW =             33.64

   INFLOWS - OUTFLOWS =        3455053.40     INFLOWS - OUTFLOWS =         -50247.81
             --------                                   --------

 TOTAL STORAGE CHANGE =        3311819.03         STORAGE CHANGE =         -49967.27
       --------------                             --------------
         LAND SURFACE =          16911.50           LAND SURFACE =          -1658.21
            SOIL ZONE =        4910703.09              SOIL ZONE =         -45595.25
     UNSATURATED ZONE =       -2111104.46       UNSATURATED ZONE =          -1277.10
       SATURATED ZONE =         495302.34         SATURATED ZONE =          -1436.77

 OVERALL BUDGET ERROR =         143234.37           BUDGET ERROR =           -280.54


  PERCENT DISCREPANCY =              0.98    PERCENT DISCREPANCY =             -0.56



1
 SUMMARY VOLUMETRIC BUDGET FOR GSFLOW 
 DATE: 06 30 1991              CUMULATIVE TIME STEP:      30
 MODFLOW STRESS PERIOD     10     CURRENT TIME STEP:     273     ITERATIONS:       8

 -----------------------------------------------------------------------------------

   CUMULATIVE VOLUMES               L**3   RATES FOR THIS TIME STEP           L**3/T
[...]
                                    ---                                        ---
   EVAPOTRANSPIRATION =        8.2019D+07     EVAPOTRANSPIRATION =         111848.55
           STREAMFLOW =        4.8813D+07             STREAMFLOW =          13301.51
     GW BOUNDARY FLOW =          56318.57       GW BOUNDARY FLOW =             39.00

   INFLOWS - OUTFLOWS =        2622569.22     INFLOWS - OUTFLOWS =        -125189.05
             --------                                   --------

 TOTAL STORAGE CHANGE =        1383149.91         STORAGE CHANGE =        -124824.89
       --------------                             --------------
         LAND SURFACE =         524381.77           LAND SURFACE =         -24592.44
            SOIL ZONE =        4522379.39              SOIL ZONE =         -95849.55
     UNSATURATED ZONE =        2092965.14       UNSATURATED ZONE =         -16701.75
       SATURATED ZONE =       -5756683.47         SATURATED ZONE =          12318.69

 OVERALL BUDGET ERROR =        1239419.31           BUDGET ERROR =           -364.16


  PERCENT DISCREPANCY =              0.93    PERCENT DISCREPANCY =             -0.29



1
 SUMMARY VOLUMETRIC BUDGET FOR GSFLOW 
 DATE: 09 03 1995              CUMULATIVE TIME STEP:       3
 MODFLOW STRESS PERIOD     61     CURRENT TIME STEP:    1799     ITERATIONS:      12

 -----------------------------------------------------------------------------------

   CUMULATIVE VOLUMES               L**3   RATES FOR THIS TIME STEP           L**3/T
   ------------------                      ------------------------

                                     IN                                         IN
                                     --                                         --
        PRECIPITATION =        1.3351D+08          PRECIPITATION =                  
           STREAMFLOW =                               STREAMFLOW =                  
     GW BOUNDARY FLOW =           2970.54       GW BOUNDARY FLOW =                  


                                    OUT                                        OUT
                                    ---                                        ---
   EVAPOTRANSPIRATION =        8.2790D+07     EVAPOTRANSPIRATION =         105376.28
           STREAMFLOW =        4.8902D+07             STREAMFLOW =          12355.09
     GW BOUNDARY FLOW =          56591.57       GW BOUNDARY FLOW =             39.01

   INFLOWS - OUTFLOWS =        1762680.90     INFLOWS - OUTFLOWS =        -117770.38
             --------                                   --------

 TOTAL STORAGE CHANGE =         524683.88         STORAGE CHANGE =        -117690.97
       --------------                             --------------
         LAND SURFACE =         372015.97           LAND SURFACE =         -19446.39
            SOIL ZONE =        3864772.95              SOIL ZONE =         -89262.85
     UNSATURATED ZONE =        1976627.02       UNSATURATED ZONE =         -17152.39
       SATURATED ZONE =       -5688840.28         SATURATED ZONE =           8170.51

 OVERALL BUDGET ERROR =        1237997.02           BUDGET ERROR =            -79.42


  PERCENT DISCREPANCY =              0.93    PERCENT DISCREPANCY =             -0.07



1
 SUMMARY VOLUMETRIC BUDGET FOR GSFLOW 
 DATE: 09 10 1995              CUMULATIVE TIME STEP:      10
 MODFLOW STRESS PERIOD     61     CURRENT TIME STEP:    1806     ITERATIONS:      11

 -----------------------------------------------------------------------------------

   CUMULATIVE VOLUMES               L**3   RATES FOR THIS TIME STEP           L**3/T
   ------------------                      ------------------------

                                     IN                                         IN
                                     --                                         --
        PRECIPITATION =        1.3351D+08          PRECIPITATION =                  
           STREAMFLOW =                               STREAMFLOW =                  
     GW BOUNDARY FLOW =           2970.54       GW BOUNDARY FLOW =                  


                                    OUT                                        OUT
                                    ---                                        ---
   EVAPOTRANSPIRATION =        8.3392D+07     EVAPOTRANSPIRATION =          81262.81
           STREAMFLOW =        4.8989D+07             STREAMFLOW =          12133.16
     GW BOUNDARY FLOW =          56864.74       GW BOUNDARY FLOW =             39.00

   INFLOWS - OUTFLOWS =        1073743.03     INFLOWS - OUTFLOWS =         -93434.97
             --------                                   --------

 TOTAL STORAGE CHANGE =        -163841.46         STORAGE CHANGE =         -93377.41
       --------------                             --------------
         LAND SURFACE =         271470.12           LAND SURFACE =         -12572.77
            SOIL ZONE =        3346085.62              SOIL ZONE =         -69715.05
     UNSATURATED ZONE =        1853932.07       UNSATURATED ZONE =         -18021.77
       SATURATED ZONE =       -5635438.63         SATURATED ZONE =           6932.02

 OVERALL BUDGET ERROR =        1237584.49           BUDGET ERROR =            -57.56


  PERCENT DISCREPANCY =              0.93    PERCENT DISCREPANCY =             -0.06



1
 SUMMARY VOLUMETRIC BUDGET FOR GSFLOW 
 DATE: 09 17 1995              CUMULATIVE TIME STEP:      17
 MODFLOW STRESS PERIOD     61     CURRENT TIME STEP:    1813     ITERATIONS:      10

 -----------------------------------------------------------------------------------

   CUMULATIVE VOLUMES               L**3   RATES FOR THIS TIME STEP           L**3/T
   ------------------                      ------------------------

                                     IN                                         IN
                                     --                                         --
        PRECIPITATION =        1.3351D+08          PRECIPITATION =                  
           STREAMFLOW =                               STREAMFLOW =                  
     GW BOUNDARY FLOW =           2970.54       GW BOUNDARY FLOW =                  


                                    OUT                                        OUT
                                    ---                                        ---
   EVAPOTRANSPIRATION =        8.4060D+07     EVAPOTRANSPIRATION =          77589.02
           STREAMFLOW =        4.9067D+07             STREAMFLOW =          11244.82
     GW BOUNDARY FLOW =          57135.19       GW BOUNDARY FLOW =             38.58

   INFLOWS - OUTFLOWS =         327455.43     INFLOWS - OUTFLOWS =         -88872.42
             --------                                   --------

 TOTAL STORAGE CHANGE =        -909636.21         STORAGE CHANGE =         -88818.07
       --------------                             --------------
         LAND SURFACE =         180685.70           LAND SURFACE =          -9600.58
            SOIL ZONE =        2793609.05              SOIL ZONE =         -64759.13
     UNSATURATED ZONE =        1719873.83       UNSATURATED ZONE =         -19048.99
       SATURATED ZONE =       -5603915.27         SATURATED ZONE =           4590.46

 OVERALL BUDGET ERROR =        1237091.64           BUDGET ERROR =            -54.35


  PERCENT DISCREPANCY =              0.92    PERCENT DISCREPANCY =             -0.06



1
 SUMMARY VOLUMETRIC BUDGET FOR GSFLOW 
 DATE: 09 24 1995              CUMULATIVE TIME STEP:      24
 MODFLOW STRESS PERIOD     61     CURRENT TIME STEP:    1820     ITERATIONS:      10

 -----------------------------------------------------------------------------------

   CUMULATIVE VOLUMES               L**3   RATES FOR THIS TIME STEP           L**3/T
   ------------------                      ------------------------

                                     IN                                         IN
                                     --                                         --
        PRECIPITATION =        1.3351D+08          PRECIPITATION =                  
           STREAMFLOW =                               STREAMFLOW =                  
     GW BOUNDARY FLOW =           2970.54       GW BOUNDARY FLOW =                  


                                    OUT                                        OUT
                                    ---                                        ---
   EVAPOTRANSPIRATION =        8.4548D+07     EVAPOTRANSPIRATION =          50934.79
           STREAMFLOW =        4.9145D+07             STREAMFLOW =          11460.93
     GW BOUNDARY FLOW =          57404.26       GW BOUNDARY FLOW =             38.36

   INFLOWS - OUTFLOWS =        -239079.98     INFLOWS - OUTFLOWS =         -62434.08
             --------                                   --------

 TOTAL STORAGE CHANGE =       -1475805.93         STORAGE CHANGE =         -62397.21
       --------------                             --------------
         LAND SURFACE =         125692.08           LAND SURFACE =          -5511.04
            SOIL ZONE =        2389004.26              SOIL ZONE =         -42966.52
     UNSATURATED ZONE =        1590044.50       UNSATURATED ZONE =         -17691.06
       SATURATED ZONE =       -5580658.37         SATURATED ZONE =           3771.25

 OVERALL BUDGET ERROR =        1236725.95           BUDGET ERROR =            -36.87


  PERCENT DISCREPANCY =              0.92    PERCENT DISCREPANCY =             -0.06



1
 SUMMARY VOLUMETRIC BUDGET FOR GSFLOW 
 DATE: 10 01 1995              CUMULATIVE TIME STEP:       1
 MODFLOW STRESS PERIOD     62     CURRENT TIME STEP:    1827     ITERATIONS:      12

 -----------------------------------------------------------------------------------

   CUMULATIVE VOLUMES               L**3   RATES FOR THIS TIME STEP           L**3/T
   ------------------                      ------------------------

                                     IN                                         IN
                                     --                                         --
        PRECIPITATION =        1.3351D+08          PRECIPITATION =                  
           STREAMFLOW =                               STREAMFLOW =                  
     GW BOUNDARY FLOW =           2970.54       GW BOUNDARY FLOW =                  


                                    OUT                                        OUT
                                    ---                                        ---
   EVAPOTRANSPIRATION =        8.4754D+07     EVAPOTRANSPIRATION =          30722.50
           STREAMFLOW =        4.9229D+07             STREAMFLOW =          12019.25
     GW BOUNDARY FLOW =          57672.30       GW BOUNDARY FLOW =             38.19

   INFLOWS - OUTFLOWS =        -530194.45     INFLOWS - OUTFLOWS =         -42779.94
             --------                                   --------

 TOTAL STORAGE CHANGE =       -1766785.63         STORAGE CHANGE =         -42753.14
       --------------                             --------------
         LAND SURFACE =         102504.93           LAND SURFACE =          -2862.19
            SOIL ZONE =        2203766.90              SOIL ZONE =         -27640.27
     UNSATURATED ZONE =        1469990.44       UNSATURATED ZONE =         -17117.18
       SATURATED ZONE =       -5543160.62         SATURATED ZONE =           4866.33

 OVERALL BUDGET ERROR =        1236591.18           BUDGET ERROR =            -26.80


  PERCENT DISCREPANCY =              0.92    PERCENT DISCREPANCY =             -0.06



1
 SUMMARY VOLUMETRIC BUDGET FOR GSFLOW 
 DATE: 10 08 1995              CUMULATIVE TIME STEP:       8
 MODFLOW STRESS PERIOD     62     CURRENT TIME STEP:    1834     ITERATIONS:      10

 -----------------------------------------------------------------------------------

   CUMULATIVE VOLUMES               L**3   RATES FOR THIS TIME STEP           L**3/T
   ------------------                      ------------------------

                                     IN                                         IN
                                     --                                         --
        PRECIPITATION =        1.3351D+08          PRECIPITATION =                  
           STREAMFLOW =                               STREAMFLOW =                  
     GW BOUNDARY FLOW =           2970.54       GW BOUNDARY FLOW =                  


                                    OUT                                        OUT
                                    ---                                        ---
   EVAPOTRANSPIRATION =        8.4991D+07     EVAPOTRANSPIRATION =          29736.53
           STREAMFLOW =        4.9312D+07             STREAMFLOW =          11750.55
     GW BOUNDARY FLOW =          57938.51       GW BOUNDARY FLOW =             37.93

   INFLOWS - OUTFLOWS =        -848826.78     INFLOWS - OUTFLOWS =         -41525.00
             --------                                   --------

 TOTAL STORAGE CHANGE =       -2085226.83         STORAGE CHANGE =         -41503.71
       --------------                             --------------
         LAND SURFACE =          81951.52           LAND SURFACE =          -2502.54
            SOIL ZONE =        1999521.20              SOIL ZONE =         -25610.59
     UNSATURATED ZONE =        1351076.17       UNSATURATED ZONE =         -16756.19
       SATURATED ZONE =       -5517889.58         SATURATED ZONE =           3365.44

 OVERALL BUDGET ERROR =        1236400.05           BUDGET ERROR =            -21.29


  PERCENT DISCREPANCY =              0.92    PERCENT DISCREPANCY =             -0.05



1
 SUMMARY VOLUMETRIC BUDGET FOR GSFLOW 
 DATE: 10 15 1995              CUMULATIVE TIME STEP:      15
 MODFLOW STRESS PERIOD     62     CURRENT TIME STEP:    1841     ITERATIONS:      12

 -----------------------------------------------------------------------------------

   CUMULATIVE VOLUMES               L**3   RATES FOR THIS TIME STEP           L**3/T
   ------------------                      ------------------------

                                     IN                                         IN
                                     --                                         --
        PRECIPITATION =        1.3351D+08          PRECIPITATION =                  
           STREAMFLOW =                               STREAMFLOW =                  
     GW BOUNDARY FLOW =           2970.56       GW BOUNDARY FLOW =        2.7155D-03


                                    OUT                                        OUT
                                    ---                                        ---
   EVAPOTRANSPIRATION =        8.5221D+07     EVAPOTRANSPIRATION =          36905.69
           STREAMFLOW =        4.9392D+07             STREAMFLOW =          11146.55
     GW BOUNDARY FLOW =          58202.71       GW BOUNDARY FLOW =             37.60

   INFLOWS - OUTFLOWS =       -1159781.61     INFLOWS - OUTFLOWS =         -48089.84
             --------                                   --------

 TOTAL STORAGE CHANGE =       -2396003.39         STORAGE CHANGE =         -48056.08
       --------------                             --------------
         LAND SURFACE =          63226.18           LAND SURFACE =          -2687.15
            SOIL ZONE =        1808131.58              SOIL ZONE =         -29937.44
     UNSATURATED ZONE =        1234520.31       UNSATURATED ZONE =         -16552.24
       SATURATED ZONE =       -5501996.45         SATURATED ZONE =           1120.59

 OVERALL BUDGET ERROR =        1236221.78           BUDGET ERROR =            -33.75


  PERCENT DISCREPANCY =              0.91    PERCENT DISCREPANCY =             -0.07



1
 SUMMARY VOLUMETRIC BUDGET FOR GSFLOW 
 DATE: 10 22 1995              CUMULATIVE TIME STEP:      22
 MODFLOW STRESS PERIOD     62     CURRENT TIME STEP:    1848     ITERATIONS:      11

 -----------------------------------------------------------------------------------

   CUMULATIVE VOLUMES               L**3   RATES FOR THIS TIME STEP           L**3/T
   ------------------                      ------------------------

                                     IN                                         IN
                                     --                                         --
        PRECIPITATION =        1.3351D+08          PRECIPITATION =                  
           STREAMFLOW =                               STREAMFLOW =                  
     GW BOUNDARY FLOW =           2970.59       GW BOUNDARY FLOW =        5.4272D-03


                                    OUT                                        OUT
                                    ---                                        ---
   EVAPOTRANSPIRATION =        8.5431D+07     EVAPOTRANSPIRATION =           8760.86
           STREAMFLOW =        4.9470D+07             STREAMFLOW =          12330.08
     GW BOUNDARY FLOW =          58464.78       GW BOUNDARY FLOW =             37.40

   INFLOWS - OUTFLOWS =       -1448428.46     INFLOWS - OUTFLOWS =         -21128.34
             --------                                   --------

 TOTAL STORAGE CHANGE =       -2684466.09         STORAGE CHANGE =         -21128.77
       --------------                             --------------
         LAND SURFACE =          49141.37           LAND SURFACE =           -667.02
            SOIL ZONE =        1637694.02              SOIL ZONE =          -9269.22
     UNSATURATED ZONE =        1120363.77       UNSATURATED ZONE =         -15370.08
       SATURATED ZONE =       -5491781.37         SATURATED ZONE =           4177.40

 OVERALL BUDGET ERROR =        1236037.63           BUDGET ERROR =              0.43


  PERCENT DISCREPANCY =              0.91    PERCENT DISCREPANCY =              0.00



1
 SUMMARY VOLUMETRIC BUDGET FOR GSFLOW 
 DATE: 10 29 1995              CUMULATIVE TIME STEP:      29
 MODFLOW STRESS PERIOD     62     CURRENT TIME STEP:    1855     ITERATIONS:       9

 -----------------------------------------------------------------------------------

   CUMULATIVE VOLUMES               L**3   RATES FOR THIS TIME STEP           L**3/T
   ------------------                      ------------------------

                                     IN                                         IN
                                     --                                         --
        PRECIPITATION =        1.3351D+08          PRECIPITATION =                  
           STREAMFLOW =                               STREAMFLOW =                  
     GW BOUNDARY FLOW =           2970.63       GW BOUNDARY FLOW =        7.5485D-03


                                    OUT                                        OUT
                                    ---                                        ---
   EVAPOTRANSPIRATION =        8.5559D+07     EVAPOTRANSPIRATION =          22474.17
           STREAMFLOW =        4.9553D+07             STREAMFLOW =          11396.15
     GW BOUNDARY FLOW =          58725.20       GW BOUNDARY FLOW =             37.04

   INFLOWS - OUTFLOWS =       -1659248.74     INFLOWS - OUTFLOWS =         -33907.36
             --------                                   --------

 TOTAL STORAGE CHANGE =       -2895222.76         STORAGE CHANGE =         -33895.10
       --------------                             --------------
         LAND SURFACE =          42922.70           LAND SURFACE =          -1382.99
            SOIL ZONE =        1528178.42              SOIL ZONE =         -17836.84
     UNSATURATED ZONE =        1013830.51       UNSATURATED ZONE =         -14981.99
       SATURATED ZONE =       -5480271.64         SATURATED ZONE =            306.55

 OVERALL BUDGET ERROR =        1235974.02           BUDGET ERROR =            -12.26


  PERCENT DISCREPANCY =              0.91    PERCENT DISCREPANCY =             -0.04



