1
 SUMMARY VOLUMETRIC BUDGET FOR GSFLOW 
 DATE: 10 07 1990              CUMULATIVE TIME STEP:       7
 MODFLOW STRESS PERIOD      2     CURRENT TIME STEP:       7     ITERATIONS:       7

 -----------------------------------------------------------------------------------

   CUMULATIVE VOLUMES               L**3   RATES FOR THIS TIME STEP           L**3/T
   ------------------                      ------------------------

                                     IN                                         IN
                                     --                                         --
        PRECIPITATION =                            PRECIPITATION =                  
           STREAMFLOW =                               STREAMFLOW =                  
     GW BOUNDARY FLOW =                         GW BOUNDARY FLOW =                  


                                    OUT                                        OUT
                                    ---                                        ---
   EVAPOTRANSPIRATION =         381260.02     EVAPOTRANSPIRATION =          12556.96
           STREAMFLOW =          45701.19             STREAMFLOW =           8118.51
     GW BOUNDARY FLOW =            252.78       GW BOUNDARY FLOW =             36.30

   INFLOWS - OUTFLOWS =        -427213.98     INFLOWS - OUTFLOWS =         -20711.78
             --------                                   --------

 TOTAL STORAGE CHANGE =        -425754.73         STORAGE CHANGE =         -20686.20
       --------------                             --------------
         LAND SURFACE =                             LAND SURFACE =                  
            SOIL ZONE =         -33207.68              SOIL ZONE =          -1003.44
     UNSATURATED ZONE =        -499638.97       UNSATURATED ZONE =         -34044.85
       SATURATED ZONE =         107091.92         SATURATED ZONE =          14362.10

 OVERALL BUDGET ERROR =          -1459.25           BUDGET ERROR =            -25.58


  PERCENT DISCREPANCY =             -0.34    PERCENT DISCREPANCY =             -0.12



1
 SUMMARY VOLUMETRIC BUDGET FOR GSFLOW 
 DATE: 10 14 1990              CUMULATIVE TIME STEP:      14
 MODFLOW STRESS PERIOD      2     CURRENT TIME STEP:      14     ITERATIONS:       6

 -----------------------------------------------------------------------------------

   CUMULATIVE VOLUMES               L**3   RATES FOR THIS TIME STEP           L**3/T
   ------------------                      ------------------------

                                     IN                                         IN
                                     --                                         --
        PRECIPITATION =                            PRECIPITATION =                  
           STREAMFLOW =                               STREAMFLOW =                  
     GW BOUNDARY FLOW =                         GW BOUNDARY FLOW =                  


                                    OUT                                        OUT
                                    ---                                        ---
   EVAPOTRANSPIRATION =         659580.43     EVAPOTRANSPIRATION =          42718.77
           STREAMFLOW =         100509.82             STREAMFLOW =           7415.53
     GW BOUNDARY FLOW =            506.62       GW BOUNDARY FLOW =             36.24

   INFLOWS - OUTFLOWS =        -760596.86     INFLOWS - OUTFLOWS =         -50170.54
             --------                                   --------

 TOTAL STORAGE CHANGE =        -758877.53         STORAGE CHANGE =         -50153.26
       --------------                             --------------
         LAND SURFACE =                             LAND SURFACE =                  
            SOIL ZONE =         -57924.16              SOIL ZONE =          -4415.32
     UNSATURATED ZONE =        -873653.89       UNSATURATED ZONE =         -52585.49
       SATURATED ZONE =         172700.51         SATURATED ZONE =           6847.56

 OVERALL BUDGET ERROR =          -1719.33           BUDGET ERROR =            -17.28


  PERCENT DISCREPANCY =             -0.23    PERCENT DISCREPANCY =             -0.03



1
 SUMMARY VOLUMETRIC BUDGET FOR GSFLOW 
 DATE: 10 21 1990              CUMULATIVE TIME STEP:      21
 MODFLOW STRESS PERIOD      2     CURRENT TIME STEP:      21     ITERATIONS:       6

 -----------------------------------------------------------------------------------

   CUMULATIVE VOLUMES               L**3   RATES FOR THIS TIME STEP           L**3/T
   ------------------                      ------------------------

                                     IN                                         IN
                                     --                                         --
        PRECIPITATION =         188432.87          PRECIPITATION =                  
           STREAMFLOW =                               STREAMFLOW =                  
     GW BOUNDARY FLOW =                         GW BOUNDARY FLOW =                  


                                    OUT                                        OUT
                                    ---                                        ---
   EVAPOTRANSPIRATION =         801945.79     EVAPOTRANSPIRATION =          37120.35
           STREAMFLOW =         163532.34             STREAMFLOW =          10139.87
     GW BOUNDARY FLOW =            760.81       GW BOUNDARY FLOW =             36.37

   INFLOWS - OUTFLOWS =        -777806.07     INFLOWS - OUTFLOWS =         -47296.58
             --------                                   --------

 TOTAL STORAGE CHANGE =        -777303.33         STORAGE CHANGE =         -47304.55
       --------------                             --------------
         LAND SURFACE =          15977.62           LAND SURFACE =         -34861.64
            SOIL ZONE =          55567.52              SOIL ZONE =          -1277.71
     UNSATURATED ZONE =       -1085760.98       UNSATURATED ZONE =         -21901.65
       SATURATED ZONE =         236912.50         SATURATED ZONE =          10736.46

 OVERALL BUDGET ERROR =           -502.74           BUDGET ERROR =              7.96


  PERCENT DISCREPANCY =             -0.05    PERCENT DISCREPANCY =              0.02



1
 SUMMARY VOLUMETRIC BUDGET FOR GSFLOW 
 DATE: 10 28 1990              CUMULATIVE TIME STEP:      28
 MODFLOW STRESS PERIOD      2     CURRENT TIME STEP:      28     ITERATIONS:       7

 -----------------------------------------------------------------------------------

   CUMULATIVE VOLUMES               L**3   RATES FOR THIS TIME STEP           L**3/T
   ------------------                      ------------------------

                                     IN                                         IN
                                     --                                         --
        PRECIPITATION =         188432.87          PRECIPITATION =                  
           STREAMFLOW =                               STREAMFLOW =                  
     GW BOUNDARY FLOW =                         GW BOUNDARY FLOW =                  


                                    OUT                                        OUT
                                    ---                                        ---
   EVAPOTRANSPIRATION =         927258.69     EVAPOTRANSPIRATION =          11164.95
           STREAMFLOW =         225160.06             STREAMFLOW =           8986.63
     GW BOUNDARY FLOW =           1014.00       GW BOUNDARY FLOW =             36.13

   INFLOWS - OUTFLOWS =        -964999.88     INFLOWS - OUTFLOWS =         -20187.71
             --------                                   --------

 TOTAL STORAGE CHANGE =        -964484.46         STORAGE CHANGE =         -20186.35
       --------------                             --------------
         LAND SURFACE =                             LAND SURFACE =                  
            SOIL ZONE =          26476.27              SOIL ZONE =          -3291.94
     UNSATURATED ZONE =       -1270417.19       UNSATURATED ZONE =         -23185.84
       SATURATED ZONE =         279456.46         SATURATED ZONE =           6291.42

 OVERALL BUDGET ERROR =           -515.42           BUDGET ERROR =             -1.35


  PERCENT DISCREPANCY =             -0.04    PERCENT DISCREPANCY =             -0.01



1
 SUMMARY VOLUMETRIC BUDGET FOR GSFLOW 
 DATE: 11 04 1990              CUMULATIVE TIME STEP:       4
 MODFLOW STRESS PERIOD      3     CURRENT TIME STEP:      35     ITERATIONS:       6

 -----------------------------------------------------------------------------------

   CUMULATIVE VOLUMES               L**3   RATES FOR THIS TIME STEP           L**3/T
   ------------------                      ------------------------

                                     IN                                         IN
                                     --                                         --
        PRECIPITATION =         703113.06          PRECIPITATION =                  
           STREAMFLOW =                               STREAMFLOW =                  
     GW BOUNDARY FLOW =                         GW BOUNDARY FLOW =                  


                                    OUT                                        OUT
                                    ---                                        ---
   EVAPOTRANSPIRATION =         986877.62     EVAPOTRANSPIRATION =          26063.10
           STREAMFLOW =         296293.87             STREAMFLOW =          10662.74
     GW BOUNDARY FLOW =           1267.06       GW BOUNDARY FLOW =             36.14

   INFLOWS - OUTFLOWS =        -581325.50     INFLOWS - OUTFLOWS =         -36761.97
             --------                                   --------

 TOTAL STORAGE CHANGE =        -585739.01         STORAGE CHANGE =         -38032.18
       --------------                             --------------
         LAND SURFACE =          71009.70           LAND SURFACE =         -84159.07
            SOIL ZONE =         418918.40              SOIL ZONE =          56784.09
     UNSATURATED ZONE =       -1416329.60       UNSATURATED ZONE =         -20126.53
       SATURATED ZONE =         340662.48         SATURATED ZONE =           9469.32

 OVERALL BUDGET ERROR =           4413.52           BUDGET ERROR =           1270.21

  ***WARNING, FLUX RATES OFF > 3%

  PERCENT DISCREPANCY =              0.34    PERCENT DISCREPANCY =              3.40



1
 SUMMARY VOLUMETRIC BUDGET FOR GSFLOW 
 DATE: 11 11 1990              CUMULATIVE TIME STEP:      11
 MODFLOW STRESS PERIOD      3     CURRENT TIME STEP:      42     ITERATIONS:       6

 -----------------------------------------------------------------------------------

   CUMULATIVE VOLUMES               L**3   RATES FOR THIS TIME STEP           L**3/T
   ------------------                      ------------------------

                                     IN                                         IN
                                     --                                         --
        PRECIPITATION =         703113.06          PRECIPITATION =                  
           STREAMFLOW =                               STREAMFLOW =                  
     GW BOUNDARY FLOW =                         GW BOUNDARY FLOW =                  


                                    OUT                                        OUT
                                    ---                                        ---
   EVAPOTRANSPIRATION =        1060188.96     EVAPOTRANSPIRATION =          12360.71
           STREAMFLOW =         367372.32             STREAMFLOW =           9643.37
     GW BOUNDARY FLOW =           1519.16       GW BOUNDARY FLOW =             35.92

   INFLOWS - OUTFLOWS =        -725967.38     INFLOWS - OUTFLOWS =         -22040.01
             --------                                   --------

 TOTAL STORAGE CHANGE =        -730561.05         STORAGE CHANGE =         -22038.91
       --------------                             --------------
         LAND SURFACE =            295.92           LAND SURFACE =           -859.89
            SOIL ZONE =         435211.36              SOIL ZONE =          -6117.65
     UNSATURATED ZONE =       -1556532.62       UNSATURATED ZONE =         -20023.57
       SATURATED ZONE =         390464.26         SATURATED ZONE =           4962.20

 OVERALL BUDGET ERROR =           4593.67           BUDGET ERROR =             -1.10


  PERCENT DISCREPANCY =              0.32    PERCENT DISCREPANCY =             -0.00



1
 SUMMARY VOLUMETRIC BUDGET FOR GSFLOW 
 DATE: 11 18 1990              CUMULATIVE TIME STEP:      18
 MODFLOW STRESS PERIOD      3     CURRENT TIME STEP:      49     ITERATIONS:       6

 -----------------------------------------------------------------------------------

   CUMULATIVE VOLUMES               L**3   RATES FOR THIS TIME STEP           L**3/T
   ------------------                      ------------------------

                                     IN                                         IN
                                     --                                         --
        PRECIPITATION =         747883.35          PRECIPITATION =                  
           STREAMFLOW =                               STREAMFLOW =                  
     GW BOUNDARY FLOW =                         GW BOUNDARY FLOW =                  


                                    OUT                                        OUT
                                    ---                                        ---
   EVAPOTRANSPIRATION =        1129636.23     EVAPOTRANSPIRATION =           5430.97
           STREAMFLOW =         439221.92             STREAMFLOW =          10696.40
     GW BOUNDARY FLOW =           1770.48       GW BOUNDARY FLOW =             35.88

   INFLOWS - OUTFLOWS =        -822745.27     INFLOWS - OUTFLOWS =         -16163.25
             --------                                   --------

 TOTAL STORAGE CHANGE =        -827377.45         STORAGE CHANGE =         -16174.68
       --------------                             --------------
         LAND SURFACE =          10077.61           LAND SURFACE =          -4199.79
            SOIL ZONE =         417311.89              SOIL ZONE =           -687.78
     UNSATURATED ZONE =       -1690446.63       UNSATURATED ZONE =         -18694.39
       SATURATED ZONE =         435679.64         SATURATED ZONE =           7407.27

 OVERALL BUDGET ERROR =           4632.18           BUDGET ERROR =             11.42


  PERCENT DISCREPANCY =              0.29    PERCENT DISCREPANCY =              0.07



1
 SUMMARY VOLUMETRIC BUDGET FOR GSFLOW 
 DATE: 11 25 1990              CUMULATIVE TIME STEP:      25
 MODFLOW STRESS PERIOD      3     CURRENT TIME STEP:      56     ITERATIONS:       6

 -----------------------------------------------------------------------------------

   CUMULATIVE VOLUMES               L**3   RATES FOR THIS TIME STEP           L**3/T
   ------------------                      ------------------------

                                     IN                                         IN
                                     --                                         --
        PRECIPITATION =        1009043.38          PRECIPITATION =         186542.88
           STREAMFLOW =                               STREAMFLOW =                  
     GW BOUNDARY FLOW =                         GW BOUNDARY FLOW =                  


                                    OUT                                        OUT
                                    ---                                        ---
   EVAPOTRANSPIRATION =        1190372.95     EVAPOTRANSPIRATION =           3818.16
           STREAMFLOW =         515300.33             STREAMFLOW =          10892.84
     GW BOUNDARY FLOW =           2021.43       GW BOUNDARY FLOW =             35.79

   INFLOWS - OUTFLOWS =        -698651.32     INFLOWS - OUTFLOWS =         171796.09
             --------                                   --------

 TOTAL STORAGE CHANGE =        -705429.61         STORAGE CHANGE =         169943.63
       --------------                             --------------
         LAND SURFACE =          92124.67           LAND SURFACE =          75233.82
            SOIL ZONE =         535309.28              SOIL ZONE =         106282.67
     UNSATURATED ZONE =       -1818554.49       UNSATURATED ZONE =         -17984.49
       SATURATED ZONE =         485690.86         SATURATED ZONE =           6411.63

 OVERALL BUDGET ERROR =           6778.29           BUDGET ERROR =           1852.45


  PERCENT DISCREPANCY =              0.40    PERCENT DISCREPANCY =              1.00



1
 SUMMARY VOLUMETRIC BUDGET FOR GSFLOW 
 DATE: 12 02 1990              CUMULATIVE TIME STEP:       2
 MODFLOW STRESS PERIOD      4     CURRENT TIME STEP:      63     ITERATIONS:       6

 -----------------------------------------------------------------------------------

   CUMULATIVE VOLUMES               L**3   RATES FOR THIS TIME STEP           L**3/T
   ------------------                      ------------------------

                                     IN                                         IN
                                     --                                         --
        PRECIPITATION =        1449284.55          PRECIPITATION =                  
           STREAMFLOW =                               STREAMFLOW =                  
     GW BOUNDARY FLOW =                         GW BOUNDARY FLOW =                  


                                    OUT                                        OUT
                                    ---                                        ---
   EVAPOTRANSPIRATION =        1197942.03     EVAPOTRANSPIRATION =            374.89
           STREAMFLOW =         592617.33             STREAMFLOW =          11084.87
     GW BOUNDARY FLOW =           2271.92       GW BOUNDARY FLOW =             35.77

   INFLOWS - OUTFLOWS =        -343546.72     INFLOWS - OUTFLOWS =         -11495.53
             --------                                   --------

 TOTAL STORAGE CHANGE =        -351439.50         STORAGE CHANGE =         -11508.29
       --------------                             --------------
         LAND SURFACE =         493448.43           LAND SURFACE =           -453.37
            SOIL ZONE =         565882.91              SOIL ZONE =            120.69
     UNSATURATED ZONE =       -1941854.97       UNSATURATED ZONE =         -17319.85
       SATURATED ZONE =         531084.04         SATURATED ZONE =           6144.23

 OVERALL BUDGET ERROR =           7892.78           BUDGET ERROR =             12.76


  PERCENT DISCREPANCY =              0.44    PERCENT DISCREPANCY =              0.11



1
 SUMMARY VOLUMETRIC BUDGET FOR GSFLOW 
 DATE: 12 09 1990              CUMULATIVE TIME STEP:       9
 MODFLOW STRESS PERIOD      4     CURRENT TIME STEP:      70     ITERATIONS:       6

 -----------------------------------------------------------------------------------

   CUMULATIVE VOLUMES               L**3   RATES FOR THIS TIME STEP           L**3/T
   ------------------                      ------------------------

                                     IN                                         IN
                                     --                                         --
        PRECIPITATION =        1449284.55          PRECIPITATION =                  
           STREAMFLOW =                               STREAMFLOW =                  
     GW BOUNDARY FLOW =                         GW BOUNDARY FLOW =                  


                                    OUT                                        OUT
                                    ---                                        ---
   EVAPOTRANSPIRATION =        1276432.29     EVAPOTRANSPIRATION =          14145.23
           STREAMFLOW =         670371.42             STREAMFLOW =          10898.56
     GW BOUNDARY FLOW =           2521.88       GW BOUNDARY FLOW =             35.64

   INFLOWS - OUTFLOWS =        -500041.04     INFLOWS - OUTFLOWS =         -25079.44
             --------                                   --------

 TOTAL STORAGE CHANGE =        -512402.16         STORAGE CHANGE =         -25200.81
       --------------                             --------------
         LAND SURFACE =          66382.65           LAND SURFACE =         -46525.52
            SOIL ZONE =         913438.86              SOIL ZONE =          33963.79
     UNSATURATED ZONE =       -2060091.62       UNSATURATED ZONE =         -16540.51
       SATURATED ZONE =         567867.83         SATURATED ZONE =           3901.44

 OVERALL BUDGET ERROR =          12361.12           BUDGET ERROR =            121.36


  PERCENT DISCREPANCY =              0.63    PERCENT DISCREPANCY =              0.48



1
 SUMMARY VOLUMETRIC BUDGET FOR GSFLOW 
 DATE: 12 16 1990              CUMULATIVE TIME STEP:      16
 MODFLOW STRESS PERIOD      4     CURRENT TIME STEP:      77     ITERATIONS:       6

 -----------------------------------------------------------------------------------

   CUMULATIVE VOLUMES               L**3   RATES FOR THIS TIME STEP           L**3/T
   ------------------                      ------------------------

                                     IN                                         IN
                                     --                                         --
        PRECIPITATION =        1804962.84          PRECIPITATION =                  
           STREAMFLOW =                               STREAMFLOW =                  
     GW BOUNDARY FLOW =                         GW BOUNDARY FLOW =                  


                                    OUT                                        OUT
                                    ---                                        ---
   EVAPOTRANSPIRATION =        1305023.89     EVAPOTRANSPIRATION =                  
           STREAMFLOW =         750104.35             STREAMFLOW =          11526.03
     GW BOUNDARY FLOW =           2771.29       GW BOUNDARY FLOW =             35.61

   INFLOWS - OUTFLOWS =        -252936.69     INFLOWS - OUTFLOWS =         -11561.64
             --------                                   --------

 TOTAL STORAGE CHANGE =        -267594.02         STORAGE CHANGE =         -11577.38
       --------------                             --------------
         LAND SURFACE =         256077.35           LAND SURFACE =                  
            SOIL ZONE =        1051274.32              SOIL ZONE =            -28.37
     UNSATURATED ZONE =       -2173840.96       UNSATURATED ZONE =         -16000.13
       SATURATED ZONE =         598895.11         SATURATED ZONE =           4451.11

 OVERALL BUDGET ERROR =          14657.33           BUDGET ERROR =             15.74


  PERCENT DISCREPANCY =              0.71    PERCENT DISCREPANCY =              0.14



1
 SUMMARY VOLUMETRIC BUDGET FOR GSFLOW 
 DATE: 12 23 1990              CUMULATIVE TIME STEP:      23
 MODFLOW STRESS PERIOD      4     CURRENT TIME STEP:      84     ITERATIONS:       6

 -----------------------------------------------------------------------------------

   CUMULATIVE VOLUMES               L**3   RATES FOR THIS TIME STEP           L**3/T
   ------------------                      ------------------------

                                     IN                                         IN
                                     --                                         --
        PRECIPITATION =        2276236.55          PRECIPITATION =                  
           STREAMFLOW =                               STREAMFLOW =                  
     GW BOUNDARY FLOW =              0.08       GW BOUNDARY FLOW =              0.04


                                    OUT                                        OUT
                                    ---                                        ---
   EVAPOTRANSPIRATION =        1306398.54     EVAPOTRANSPIRATION =                  
           STREAMFLOW =         830981.55             STREAMFLOW =          11575.92
     GW BOUNDARY FLOW =           3020.32       GW BOUNDARY FLOW =             35.57

   INFLOWS - OUTFLOWS =         135836.21     INFLOWS - OUTFLOWS =         -11611.45
             --------                                   --------

 TOTAL STORAGE CHANGE =         121077.75         STORAGE CHANGE =         -11624.99
       --------------                             --------------
         LAND SURFACE =         725980.65           LAND SURFACE =                  
            SOIL ZONE =        1051417.33              SOIL ZONE =             49.72
     UNSATURATED ZONE =       -2283375.97       UNSATURATED ZONE =         -15401.21
       SATURATED ZONE =         627055.54         SATURATED ZONE =           3726.49

 OVERALL BUDGET ERROR =          14758.46           BUDGET ERROR =             13.54


  PERCENT DISCREPANCY =              0.65    PERCENT DISCREPANCY =              0.12



1
 SUMMARY VOLUMETRIC BUDGET FOR GSFLOW 
 DATE: 12 30 1990              CUMULATIVE TIME STEP:      30
 MODFLOW STRESS PERIOD      4     CURRENT TIME STEP:      91     ITERATIONS:       5

 -----------------------------------------------------------------------------------

   CUMULATIVE VOLUMES               L**3   RATES FOR THIS TIME STEP           L**3/T
   ------------------                      ------------------------

                                     IN                                         IN
                                     --                                         --
        PRECIPITATION =        2276236.55          PRECIPITATION =                  
           STREAMFLOW =                               STREAMFLOW =                  
     GW BOUNDARY FLOW =              0.77       GW BOUNDARY FLOW =              0.14


                                    OUT                                        OUT
                                    ---                                        ---
   EVAPOTRANSPIRATION =        1307151.19     EVAPOTRANSPIRATION =                  
           STREAMFLOW =         912254.06             STREAMFLOW =          11637.86
     GW BOUNDARY FLOW =           3269.43       GW BOUNDARY FLOW =             35.60

   INFLOWS - OUTFLOWS =          53562.64     INFLOWS - OUTFLOWS =         -11673.31
             --------                                   --------

 TOTAL STORAGE CHANGE =          38724.02         STORAGE CHANGE =         -11683.23
       --------------                             --------------
         LAND SURFACE =         725228.16           LAND SURFACE =                  
            SOIL ZONE =        1051964.73              SOIL ZONE =             97.12
     UNSATURATED ZONE =       -2389025.27       UNSATURATED ZONE =         -14860.31
       SATURATED ZONE =         650556.17         SATURATED ZONE =           3079.96

 OVERALL BUDGET ERROR =          14838.62           BUDGET ERROR =              9.92


  PERCENT DISCREPANCY =              0.65    PERCENT DISCREPANCY =              0.08



1
 SUMMARY VOLUMETRIC BUDGET FOR GSFLOW 
 DATE: 01 06 1991              CUMULATIVE TIME STEP:       6
 MODFLOW STRESS PERIOD      5     CURRENT TIME STEP:      98     ITERATIONS:       5

 -----------------------------------------------------------------------------------

   CUMULATIVE VOLUMES               L**3   RATES FOR THIS TIME STEP           L**3/T
   ------------------                      ------------------------

                                     IN                                         IN
                                     --                                         --
        PRECIPITATION =        2276236.55          PRECIPITATION =                  
           STREAMFLOW =                               STREAMFLOW =                  
     GW BOUNDARY FLOW =              2.09       GW BOUNDARY FLOW =              0.22


                                    OUT                                        OUT
                                    ---                                        ---
   EVAPOTRANSPIRATION =        1330428.87     EVAPOTRANSPIRATION =           2584.60
           STREAMFLOW =         994137.00             STREAMFLOW =          11735.76
     GW BOUNDARY FLOW =           3519.32       GW BOUNDARY FLOW =             35.75

   INFLOWS - OUTFLOWS =         -51846.55     INFLOWS - OUTFLOWS =         -14355.89
             --------                                   --------

 TOTAL STORAGE CHANGE =         -69156.90         STORAGE CHANGE =         -14483.12
       --------------                             --------------
         LAND SURFACE =         620283.29           LAND SURFACE =          -6112.33
            SOIL ZONE =        1131900.50              SOIL ZONE =           3501.35
     UNSATURATED ZONE =       -2490704.86       UNSATURATED ZONE =         -14287.62
       SATURATED ZONE =         669363.90         SATURATED ZONE =           2415.47

 OVERALL BUDGET ERROR =          17310.36           BUDGET ERROR =            127.24


  PERCENT DISCREPANCY =              0.74    PERCENT DISCREPANCY =              0.88



1
 SUMMARY VOLUMETRIC BUDGET FOR GSFLOW 
 DATE: 01 13 1991              CUMULATIVE TIME STEP:      13
 MODFLOW STRESS PERIOD      5     CURRENT TIME STEP:     105     ITERATIONS:       6

 -----------------------------------------------------------------------------------

   CUMULATIVE VOLUMES               L**3   RATES FOR THIS TIME STEP           L**3/T
   ------------------                      ------------------------

                                     IN                                         IN
                                     --                                         --
        PRECIPITATION =        2596386.94          PRECIPITATION =          10327.43
           STREAMFLOW =                               STREAMFLOW =                  
     GW BOUNDARY FLOW =              4.02       GW BOUNDARY FLOW =              0.31


                                    OUT                                        OUT
                                    ---                                        ---
   EVAPOTRANSPIRATION =        1391006.17     EVAPOTRANSPIRATION =          17385.54
           STREAMFLOW =        1076445.87             STREAMFLOW =          11732.06
     GW BOUNDARY FLOW =           3769.54       GW BOUNDARY FLOW =             35.73

   INFLOWS - OUTFLOWS =         125169.38     INFLOWS - OUTFLOWS =         -18825.59
             --------                                   --------

 TOTAL STORAGE CHANGE =         102836.95         STORAGE CHANGE =         -20111.35
       --------------                             --------------
         LAND SURFACE =         586364.85           LAND SURFACE =        -135127.18
            SOIL ZONE =        1422178.84              SOIL ZONE =         127608.65
     UNSATURATED ZONE =       -2588337.32       UNSATURATED ZONE =         -13754.56
       SATURATED ZONE =         682630.25         SATURATED ZONE =           1161.72

 OVERALL BUDGET ERROR =          22332.43           BUDGET ERROR =           1285.77

  ***WARNING, FLUX RATES OFF > 3%

  PERCENT DISCREPANCY =              0.86    PERCENT DISCREPANCY =              4.32



1
 SUMMARY VOLUMETRIC BUDGET FOR GSFLOW 
 DATE: 01 20 1991              CUMULATIVE TIME STEP:      20
 MODFLOW STRESS PERIOD      5     CURRENT TIME STEP:     112     ITERATIONS:       5

 -----------------------------------------------------------------------------------

   CUMULATIVE VOLUMES               L**3   RATES FOR THIS TIME STEP           L**3/T
   ------------------                      ------------------------

                                     IN                                         IN
                                     --                                         --
        PRECIPITATION =        2596386.94          PRECIPITATION =                  
           STREAMFLOW =                               STREAMFLOW =                  
     GW BOUNDARY FLOW =              6.55       GW BOUNDARY FLOW =              0.40


                                    OUT                                        OUT
                                    ---                                        ---
   EVAPOTRANSPIRATION =        1461674.37     EVAPOTRANSPIRATION =           1892.51
           STREAMFLOW =        1159593.47             STREAMFLOW =          11896.12
     GW BOUNDARY FLOW =           4019.76       GW BOUNDARY FLOW =             35.74

   INFLOWS - OUTFLOWS =         -28894.11     INFLOWS - OUTFLOWS =         -13823.97
             --------                                   --------

 TOTAL STORAGE CHANGE =         -52277.90         STORAGE CHANGE =         -13833.17
       --------------                             --------------
         LAND SURFACE =         422210.58           LAND SURFACE =           -295.67
            SOIL ZONE =        1515285.86              SOIL ZONE =          -1548.23
     UNSATURATED ZONE =       -2682075.53       UNSATURATED ZONE =         -13168.04
       SATURATED ZONE =         692300.81         SATURATED ZONE =           1178.76

 OVERALL BUDGET ERROR =          23383.79           BUDGET ERROR =              9.20


  PERCENT DISCREPANCY =              0.89    PERCENT DISCREPANCY =              0.07



1
 SUMMARY VOLUMETRIC BUDGET FOR GSFLOW 
 DATE: 01 27 1991              CUMULATIVE TIME STEP:      27
 MODFLOW STRESS PERIOD      5     CURRENT TIME STEP:     119     ITERATIONS:       5

 -----------------------------------------------------------------------------------

   CUMULATIVE VOLUMES               L**3   RATES FOR THIS TIME STEP           L**3/T
   ------------------                      ------------------------

                                     IN                                         IN
                                     --                                         --
        PRECIPITATION =        2596386.94          PRECIPITATION =                  
           STREAMFLOW =                               STREAMFLOW =                  
     GW BOUNDARY FLOW =              9.66       GW BOUNDARY FLOW =              0.48


                                    OUT                                        OUT
                                    ---                                        ---
   EVAPOTRANSPIRATION =        1483728.53     EVAPOTRANSPIRATION =           1239.75
           STREAMFLOW =        1242810.62             STREAMFLOW =          11913.93
     GW BOUNDARY FLOW =           4269.93       GW BOUNDARY FLOW =             35.74

   INFLOWS - OUTFLOWS =        -134412.48     INFLOWS - OUTFLOWS =         -13188.94
             --------                                   --------

 TOTAL STORAGE CHANGE =        -158058.56         STORAGE CHANGE =         -13189.05
       --------------                             --------------
         LAND SURFACE =         394226.38           LAND SURFACE =           -109.80
            SOIL ZONE =        1521890.18              SOIL ZONE =          -1027.60
     UNSATURATED ZONE =       -2772278.07       UNSATURATED ZONE =         -12667.77
       SATURATED ZONE =         698102.50         SATURATED ZONE =            616.11

 OVERALL BUDGET ERROR =          23646.08           BUDGET ERROR =              0.10


  PERCENT DISCREPANCY =              0.86    PERCENT DISCREPANCY =              0.00



1
 SUMMARY VOLUMETRIC BUDGET FOR GSFLOW 
 DATE: 02 03 1991              CUMULATIVE TIME STEP:       3
 MODFLOW STRESS PERIOD      6     CURRENT TIME STEP:     126     ITERATIONS:       6

 -----------------------------------------------------------------------------------

   CUMULATIVE VOLUMES               L**3   RATES FOR THIS TIME STEP           L**3/T
   ------------------                      ------------------------

                                     IN                                         IN
                                     --                                         --
        PRECIPITATION =        3228422.31          PRECIPITATION =          30459.53
           STREAMFLOW =                               STREAMFLOW =                  
     GW BOUNDARY FLOW =             13.31       GW BOUNDARY FLOW =              0.55


                                    OUT                                        OUT
                                    ---                                        ---
   EVAPOTRANSPIRATION =        1586085.74     EVAPOTRANSPIRATION =          20507.87
           STREAMFLOW =        1327550.05             STREAMFLOW =          12241.25
     GW BOUNDARY FLOW =           4520.02       GW BOUNDARY FLOW =             35.74

   INFLOWS - OUTFLOWS =         310279.80     INFLOWS - OUTFLOWS =          -2324.76
             --------                                   --------

 TOTAL STORAGE CHANGE =         279558.71         STORAGE CHANGE =          -2604.66
       --------------                             --------------
         LAND SURFACE =         184727.70           LAND SURFACE =         -28670.24
            SOIL ZONE =        2254703.84              SOIL ZONE =          38291.41
     UNSATURATED ZONE =       -2859233.42       UNSATURATED ZONE =         -12269.87
       SATURATED ZONE =         699360.08         SATURATED ZONE =             44.03

 OVERALL BUDGET ERROR =          30721.10           BUDGET ERROR =            279.90


  PERCENT DISCREPANCY =              0.96    PERCENT DISCREPANCY =              0.85



1
 SUMMARY VOLUMETRIC BUDGET FOR GSFLOW 
 DATE: 02 10 1991              CUMULATIVE TIME STEP:      10
 MODFLOW STRESS PERIOD      6     CURRENT TIME STEP:     133     ITERATIONS:       5

 -----------------------------------------------------------------------------------

   CUMULATIVE VOLUMES               L**3   RATES FOR THIS TIME STEP           L**3/T
   ------------------                      ------------------------

                                     IN                                         IN
                                     --                                         --
        PRECIPITATION =        3510173.01          PRECIPITATION =                  
           STREAMFLOW =                               STREAMFLOW =                  
     GW BOUNDARY FLOW =             17.49       GW BOUNDARY FLOW =              0.63


                                    OUT                                        OUT
                                    ---                                        ---
   EVAPOTRANSPIRATION =        1752964.00     EVAPOTRANSPIRATION =          25852.40
           STREAMFLOW =        1413565.65             STREAMFLOW =          12164.65
     GW BOUNDARY FLOW =           4770.11       GW BOUNDARY FLOW =             35.72

   INFLOWS - OUTFLOWS =         338890.73     INFLOWS - OUTFLOWS =         -38052.14
             --------                                   --------

 TOTAL STORAGE CHANGE =         305148.83         STORAGE CHANGE =         -38009.94
       --------------                             --------------
         LAND SURFACE =          90050.80           LAND SURFACE =         -12330.62
            SOIL ZONE =        2460129.74              SOIL ZONE =         -13448.30
     UNSATURATED ZONE =       -2942720.85       UNSATURATED ZONE =         -11761.62
       SATURATED ZONE =         697688.56         SATURATED ZONE =           -469.41

 OVERALL BUDGET ERROR =          33741.90           BUDGET ERROR =            -42.21


  PERCENT DISCREPANCY =              0.97    PERCENT DISCREPANCY =             -0.11



1
 SUMMARY VOLUMETRIC BUDGET FOR GSFLOW 
 DATE: 02 17 1991              CUMULATIVE TIME STEP:      17
 MODFLOW STRESS PERIOD      6     CURRENT TIME STEP:     140     ITERATIONS:       5

 -----------------------------------------------------------------------------------

   CUMULATIVE VOLUMES               L**3   RATES FOR THIS TIME STEP           L**3/T
   ------------------                      ------------------------

                                     IN                                         IN
                                     --                                         --
        PRECIPITATION =        3510173.01          PRECIPITATION =                  
           STREAMFLOW =                               STREAMFLOW =                  
     GW BOUNDARY FLOW =             22.16       GW BOUNDARY FLOW =              0.70


                                    OUT                                        OUT
                                    ---                                        ---
   EVAPOTRANSPIRATION =        1996455.25     EVAPOTRANSPIRATION =          23256.88
           STREAMFLOW =        1498293.41             STREAMFLOW =          12099.22
     GW BOUNDARY FLOW =           5020.04       GW BOUNDARY FLOW =             35.68

   INFLOWS - OUTFLOWS =          10426.47     INFLOWS - OUTFLOWS =         -35391.08
             --------                                   --------

 TOTAL STORAGE CHANGE =         -22715.33         STORAGE CHANGE =         -35315.38
       --------------                             --------------
         LAND SURFACE =          18163.73           LAND SURFACE =          -1654.25
            SOIL ZONE =        2289560.12              SOIL ZONE =         -21558.28
     UNSATURATED ZONE =       -3022670.51       UNSATURATED ZONE =         -11116.17
       SATURATED ZONE =         692230.65         SATURATED ZONE =           -986.69

 OVERALL BUDGET ERROR =          33141.80           BUDGET ERROR =            -75.70


  PERCENT DISCREPANCY =              0.94    PERCENT DISCREPANCY =             -0.21



1
 SUMMARY VOLUMETRIC BUDGET FOR GSFLOW 
 DATE: 02 24 1991              CUMULATIVE TIME STEP:      24
 MODFLOW STRESS PERIOD      6     CURRENT TIME STEP:     147     ITERATIONS:       5

 -----------------------------------------------------------------------------------

   CUMULATIVE VOLUMES               L**3   RATES FOR THIS TIME STEP           L**3/T
   ------------------                      ------------------------

                                     IN                                         IN
                                     --                                         --
        PRECIPITATION =        3510173.01          PRECIPITATION =                  
           STREAMFLOW =                               STREAMFLOW =                  
     GW BOUNDARY FLOW =             27.31       GW BOUNDARY FLOW =              0.76


                                    OUT                                        OUT
                                    ---                                        ---
   EVAPOTRANSPIRATION =        2212617.25     EVAPOTRANSPIRATION =          21963.26
           STREAMFLOW =        1582324.39             STREAMFLOW =          11962.90
     GW BOUNDARY FLOW =           5268.96       GW BOUNDARY FLOW =             35.48

   INFLOWS - OUTFLOWS =        -290010.28     INFLOWS - OUTFLOWS =         -33960.88
             --------                                   --------

 TOTAL STORAGE CHANGE =        -322450.79         STORAGE CHANGE =         -33886.86
       --------------                             --------------
         LAND SURFACE =           6686.42           LAND SURFACE =           -239.07
            SOIL ZONE =        2086667.21              SOIL ZONE =         -21384.98
     UNSATURATED ZONE =       -3098747.49       UNSATURATED ZONE =         -10699.98
       SATURATED ZONE =         682942.30         SATURATED ZONE =          -1562.84

 OVERALL BUDGET ERROR =          32440.51           BUDGET ERROR =            -74.02


  PERCENT DISCREPANCY =              0.85    PERCENT DISCREPANCY =             -0.22



1
 SUMMARY VOLUMETRIC BUDGET FOR GSFLOW 
 DATE: 03 03 1991              CUMULATIVE TIME STEP:       3
 MODFLOW STRESS PERIOD      7     CURRENT TIME STEP:     154     ITERATIONS:       5

 -----------------------------------------------------------------------------------

   CUMULATIVE VOLUMES               L**3   RATES FOR THIS TIME STEP           L**3/T
   ------------------                      ------------------------

                                     IN                                         IN
                                     --                                         --
        PRECIPITATION =        6220189.63          PRECIPITATION =        1243187.24
           STREAMFLOW =                               STREAMFLOW =                  
     GW BOUNDARY FLOW =             32.91       GW BOUNDARY FLOW =              0.83


                                    OUT                                        OUT
                                    ---                                        ---
   EVAPOTRANSPIRATION =        2364790.88     EVAPOTRANSPIRATION =           8000.46
           STREAMFLOW =        1665794.97             STREAMFLOW =          12215.94
     GW BOUNDARY FLOW =           5516.66       GW BOUNDARY FLOW =             35.33

   INFLOWS - OUTFLOWS =        2184120.03     INFLOWS - OUTFLOWS =        1222936.33
             --------                                   --------

 TOTAL STORAGE CHANGE =        2145406.83         STORAGE CHANGE =        1216214.20
       --------------                             --------------
         LAND SURFACE =        2505904.36           LAND SURFACE =        1046748.88
            SOIL ZONE =        2143080.39              SOIL ZONE =         182126.27
     UNSATURATED ZONE =       -3171828.26       UNSATURATED ZONE =         -10285.59
       SATURATED ZONE =         668249.49         SATURATED ZONE =          -2375.38

 OVERALL BUDGET ERROR =          38713.21           BUDGET ERROR =           6722.14


  PERCENT DISCREPANCY =              0.62    PERCENT DISCREPANCY =              0.54



1
 SUMMARY VOLUMETRIC BUDGET FOR GSFLOW 
 DATE: 03 10 1991              CUMULATIVE TIME STEP:      10
 MODFLOW STRESS PERIOD      7     CURRENT TIME STEP:     161     ITERATIONS:       6

 -----------------------------------------------------------------------------------

   CUMULATIVE VOLUMES               L**3   RATES FOR THIS TIME STEP           L**3/T
   ------------------                      ------------------------

                                     IN                                         IN
                                     --                                         --
        PRECIPITATION =        8746030.42          PRECIPITATION =          32888.55
           STREAMFLOW =                               STREAMFLOW =                  
     GW BOUNDARY FLOW =             38.95       GW BOUNDARY FLOW =              0.89


                                    OUT                                        OUT
                                    ---                                        ---
   EVAPOTRANSPIRATION =        2423923.32     EVAPOTRANSPIRATION =           8408.63
           STREAMFLOW =        1800219.50             STREAMFLOW =          18210.86
     GW BOUNDARY FLOW =           5764.72       GW BOUNDARY FLOW =             35.36

   INFLOWS - OUTFLOWS =        4516161.83     INFLOWS - OUTFLOWS =           6234.58
             --------                                   --------

 TOTAL STORAGE CHANGE =        4445008.00         STORAGE CHANGE =           5214.05
       --------------                             --------------
         LAND SURFACE =        3082070.49           LAND SURFACE =            535.10
            SOIL ZONE =        3917224.50              SOIL ZONE =          11282.84
     UNSATURATED ZONE =       -3214629.38       UNSATURATED ZONE =          -5264.72
       SATURATED ZONE =         660341.34         SATURATED ZONE =          -1339.21

 OVERALL BUDGET ERROR =          71153.83           BUDGET ERROR =           1020.54

  ***WARNING, FLUX RATES OFF > 3%

  PERCENT DISCREPANCY =              0.82    PERCENT DISCREPANCY =              3.15



1
 SUMMARY VOLUMETRIC BUDGET FOR GSFLOW 
 DATE: 03 17 1991              CUMULATIVE TIME STEP:      17
 MODFLOW STRESS PERIOD      7     CURRENT TIME STEP:     168     ITERATIONS:       5

 -----------------------------------------------------------------------------------

   CUMULATIVE VOLUMES               L**3   RATES FOR THIS TIME STEP           L**3/T
   ------------------                      ------------------------

                                     IN                                         IN
                                     --                                         --
        PRECIPITATION =        9897129.71          PRECIPITATION =         157865.04
           STREAMFLOW =                               STREAMFLOW =                  
     GW BOUNDARY FLOW =             45.40       GW BOUNDARY FLOW =              0.95


                                    OUT                                        OUT
                                    ---                                        ---
   EVAPOTRANSPIRATION =        2449599.80     EVAPOTRANSPIRATION =           7593.05
           STREAMFLOW =        1918867.73             STREAMFLOW =          16465.40
     GW BOUNDARY FLOW =           6011.48       GW BOUNDARY FLOW =             35.18

   INFLOWS - OUTFLOWS =        5522696.11     INFLOWS - OUTFLOWS =         133772.37
             --------                                   --------

 TOTAL STORAGE CHANGE =        5451415.31         STORAGE CHANGE =         133808.51
       --------------                             --------------
         LAND SURFACE =        4232943.09           LAND SURFACE =         157846.09
            SOIL ZONE =        3823687.59              SOIL ZONE =         -16351.97
     UNSATURATED ZONE =       -3253328.20       UNSATURATED ZONE =          -5656.66
       SATURATED ZONE =         648111.57         SATURATED ZONE =          -2028.98

 OVERALL BUDGET ERROR =          71280.80           BUDGET ERROR =            -36.14


  PERCENT DISCREPANCY =              0.72    PERCENT DISCREPANCY =             -0.02



1
 SUMMARY VOLUMETRIC BUDGET FOR GSFLOW 
 DATE: 03 24 1991              CUMULATIVE TIME STEP:      24
 MODFLOW STRESS PERIOD      7     CURRENT TIME STEP:     175     ITERATIONS:       5

 -----------------------------------------------------------------------------------

   CUMULATIVE VOLUMES               L**3   RATES FOR THIS TIME STEP           L**3/T
   ------------------                      ------------------------

                                     IN                                         IN
                                     --                                         --
        PRECIPITATION =        1.1673D+07          PRECIPITATION =        1230031.83
           STREAMFLOW =                               STREAMFLOW =                  
     GW BOUNDARY FLOW =             52.27       GW BOUNDARY FLOW =              1.00


                                    OUT                                        OUT
                                    ---                                        ---
   EVAPOTRANSPIRATION =        2485180.41     EVAPOTRANSPIRATION =           4146.88
           STREAMFLOW =        2030962.46             STREAMFLOW =          15760.23
     GW BOUNDARY FLOW =           6257.07       GW BOUNDARY FLOW =             35.02

   INFLOWS - OUTFLOWS =        7150763.83     INFLOWS - OUTFLOWS =        1210090.71
             --------                                   --------

 TOTAL STORAGE CHANGE =        7079366.13         STORAGE CHANGE =        1210186.37
       --------------                             --------------
         LAND SURFACE =        6001644.06           LAND SURFACE =        1230031.83
            SOIL ZONE =        3740682.75              SOIL ZONE =         -11217.40
     UNSATURATED ZONE =       -3294707.55       UNSATURATED ZONE =          -6084.47
       SATURATED ZONE =         631745.41         SATURATED ZONE =          -2543.62

 OVERALL BUDGET ERROR =          71397.70           BUDGET ERROR =            -95.66


  PERCENT DISCREPANCY =              0.61    PERCENT DISCREPANCY =             -0.01



1
 SUMMARY VOLUMETRIC BUDGET FOR GSFLOW 
 DATE: 03 31 1991              CUMULATIVE TIME STEP:      31
 MODFLOW STRESS PERIOD      7     CURRENT TIME STEP:     182     ITERATIONS:       6

 -----------------------------------------------------------------------------------

   CUMULATIVE VOLUMES               L**3   RATES FOR THIS TIME STEP           L**3/T
   ------------------                      ------------------------

                                     IN                                         IN
                                     --                                         --
        PRECIPITATION =        1.2495D+07          PRECIPITATION =                  
           STREAMFLOW =                               STREAMFLOW =                  
     GW BOUNDARY FLOW =             59.52       GW BOUNDARY FLOW =              1.06


                                    OUT                                        OUT
                                    ---                                        ---
   EVAPOTRANSPIRATION =        2593471.71     EVAPOTRANSPIRATION =          44703.21
           STREAMFLOW =        2143212.29             STREAMFLOW =          17894.84
     GW BOUNDARY FLOW =           6501.68       GW BOUNDARY FLOW =             34.93

   INFLOWS - OUTFLOWS =        7752199.14     INFLOWS - OUTFLOWS =         -62631.92
             --------                                   --------

 TOTAL STORAGE CHANGE =        7676554.51         STORAGE CHANGE =         -65648.95
       --------------                             --------------
         LAND SURFACE =        6627859.43           LAND SURFACE =        -109529.99
            SOIL ZONE =        3772990.62              SOIL ZONE =          51957.39
     UNSATURATED ZONE =       -3336402.97       UNSATURATED ZONE =          -5223.27
       SATURATED ZONE =         612105.76         SATURATED ZONE =          -2853.11

 OVERALL BUDGET ERROR =          75644.62           BUDGET ERROR =           3017.03

  ***WARNING, FLUX RATES OFF > 3%

  PERCENT DISCREPANCY =              0.61    PERCENT DISCREPANCY =              4.70



1
 SUMMARY VOLUMETRIC BUDGET FOR GSFLOW 
 DATE: 04 07 1991              CUMULATIVE TIME STEP:       7
 MODFLOW STRESS PERIOD      8     CURRENT TIME STEP:     189     ITERATIONS:       7

 -----------------------------------------------------------------------------------

   CUMULATIVE VOLUMES               L**3   RATES FOR THIS TIME STEP           L**3/T
   ------------------                      ------------------------

                                     IN                                         IN
                                     --                                         --
        PRECIPITATION =        1.3018D+07          PRECIPITATION =                  
           STREAMFLOW =                               STREAMFLOW =                  
     GW BOUNDARY FLOW =             67.15       GW BOUNDARY FLOW =              1.11


                                    OUT                                        OUT
                                    ---                                        ---
   EVAPOTRANSPIRATION =        2880778.95     EVAPOTRANSPIRATION =          13551.18
           STREAMFLOW =        2390182.00             STREAMFLOW =          49782.65
     GW BOUNDARY FLOW =           6747.98       GW BOUNDARY FLOW =             35.41

   INFLOWS - OUTFLOWS =        7740094.96     INFLOWS - OUTFLOWS =         -63368.13
             --------                                   --------

 TOTAL STORAGE CHANGE =        7630883.93         STORAGE CHANGE =         -63986.95
       --------------                             --------------
         LAND SURFACE =        5127084.68           LAND SURFACE =         -59307.30
            SOIL ZONE =        5243271.90              SOIL ZONE =          -8555.20
     UNSATURATED ZONE =       -3334819.12       UNSATURATED ZONE =           6063.99
       SATURATED ZONE =         595344.53         SATURATED ZONE =          -2188.48

 OVERALL BUDGET ERROR =         109211.03           BUDGET ERROR =            618.81


  PERCENT DISCREPANCY =              0.84    PERCENT DISCREPANCY =              0.97



1
 SUMMARY VOLUMETRIC BUDGET FOR GSFLOW 
 DATE: 04 14 1991              CUMULATIVE TIME STEP:      14
 MODFLOW STRESS PERIOD      8     CURRENT TIME STEP:     196     ITERATIONS:       7

 -----------------------------------------------------------------------------------

   CUMULATIVE VOLUMES               L**3   RATES FOR THIS TIME STEP           L**3/T
   ------------------                      ------------------------

                                     IN                                         IN
                                     --                                         --
        PRECIPITATION =        1.3018D+07          PRECIPITATION =                  
           STREAMFLOW =                               STREAMFLOW =                  
     GW BOUNDARY FLOW =             75.11       GW BOUNDARY FLOW =              1.16


                                    OUT                                        OUT
                                    ---                                        ---
   EVAPOTRANSPIRATION =        3050611.33     EVAPOTRANSPIRATION =          38933.13
           STREAMFLOW =        2783062.62             STREAMFLOW =          61274.48
     GW BOUNDARY FLOW =           6995.93       GW BOUNDARY FLOW =             35.44

   INFLOWS - OUTFLOWS =        7177141.97     INFLOWS - OUTFLOWS =        -100241.89
             --------                                   --------

 TOTAL STORAGE CHANGE =        7070469.89         STORAGE CHANGE =        -101128.11
       --------------                             --------------
         LAND SURFACE =        4519797.59           LAND SURFACE =        -171937.20
            SOIL ZONE =        5261059.48              SOIL ZONE =          66936.52
     UNSATURATED ZONE =       -3291145.61       UNSATURATED ZONE =           6055.33
       SATURATED ZONE =         580756.18         SATURATED ZONE =          -2182.81

 OVERALL BUDGET ERROR =         106672.08           BUDGET ERROR =            886.22


  PERCENT DISCREPANCY =              0.82    PERCENT DISCREPANCY =              0.88



1
 SUMMARY VOLUMETRIC BUDGET FOR GSFLOW 
 DATE: 04 21 1991              CUMULATIVE TIME STEP:      21
 MODFLOW STRESS PERIOD      8     CURRENT TIME STEP:     203     ITERATIONS:       7

 -----------------------------------------------------------------------------------

   CUMULATIVE VOLUMES               L**3   RATES FOR THIS TIME STEP           L**3/T
   ------------------                      ------------------------

                                     IN                                         IN
                                     --                                         --
        PRECIPITATION =        1.3034D+07          PRECIPITATION =                  
           STREAMFLOW =                               STREAMFLOW =                  
     GW BOUNDARY FLOW =             83.38       GW BOUNDARY FLOW =              1.20


                                    OUT                                        OUT
                                    ---                                        ---
   EVAPOTRANSPIRATION =        3282283.92     EVAPOTRANSPIRATION =          43439.42
           STREAMFLOW =        3273314.10             STREAMFLOW =          82983.55
     GW BOUNDARY FLOW =           7244.41       GW BOUNDARY FLOW =             35.62

   INFLOWS - OUTFLOWS =        6471303.04     INFLOWS - OUTFLOWS =        -126457.40
             --------                                   --------

 TOTAL STORAGE CHANGE =        6374480.68         STORAGE CHANGE =        -124218.47
       --------------                             --------------
         LAND SURFACE =        3417717.40           LAND SURFACE =        -214591.81
            SOIL ZONE =        5631429.97              SOIL ZONE =          83122.79
     UNSATURATED ZONE =       -3242464.00       UNSATURATED ZONE =           8772.18
       SATURATED ZONE =         567794.72         SATURATED ZONE =          -1521.68

 OVERALL BUDGET ERROR =          96822.35           BUDGET ERROR =          -2238.93


  PERCENT DISCREPANCY =              0.75    PERCENT DISCREPANCY =             -1.79



1
 SUMMARY VOLUMETRIC BUDGET FOR GSFLOW 
 DATE: 04 28 1991              CUMULATIVE TIME STEP:      28
 MODFLOW STRESS PERIOD      8     CURRENT TIME STEP:     210     ITERATIONS:       7

 -----------------------------------------------------------------------------------

   CUMULATIVE VOLUMES               L**3   RATES FOR THIS TIME STEP           L**3/T
   ------------------                      ------------------------

                                     IN                                         IN
                                     --                                         --
        PRECIPITATION =        1.3303D+07          PRECIPITATION =                  
           STREAMFLOW =                               STREAMFLOW =                  
     GW BOUNDARY FLOW =             91.92       GW BOUNDARY FLOW =              1.24


                                    OUT                                        OUT
                                    ---                                        ---
   EVAPOTRANSPIRATION =        3529134.80     EVAPOTRANSPIRATION =          55254.99
           STREAMFLOW =        3879140.52             STREAMFLOW =          83649.71
     GW BOUNDARY FLOW =           7493.65       GW BOUNDARY FLOW =             35.52

   INFLOWS - OUTFLOWS =        5887753.45     INFLOWS - OUTFLOWS =        -138938.98
             --------                                   --------

 TOTAL STORAGE CHANGE =        5829156.23         STORAGE CHANGE =        -132514.07
       --------------                             --------------
         LAND SURFACE =        2828492.49           LAND SURFACE =        -115203.82
            SOIL ZONE =        5621726.79              SOIL ZONE =         -24564.29
     UNSATURATED ZONE =       -3179532.23       UNSATURATED ZONE =           8152.72
       SATURATED ZONE =         558466.19         SATURATED ZONE =           -898.74

 OVERALL BUDGET ERROR =          58597.21           BUDGET ERROR =          -6424.91

  ***WARNING, FLUX RATES OFF > 3%

  PERCENT DISCREPANCY =              0.44    PERCENT DISCREPANCY =             -4.73



1
 SUMMARY VOLUMETRIC BUDGET FOR GSFLOW 
 DATE: 05 05 1991              CUMULATIVE TIME STEP:       5
 MODFLOW STRESS PERIOD      9     CURRENT TIME STEP:     217     ITERATIONS:      10

 -----------------------------------------------------------------------------------

   CUMULATIVE VOLUMES               L**3   RATES FOR THIS TIME STEP           L**3/T
   ------------------                      ------------------------

                                     IN                                         IN
                                     --                                         --
        PRECIPITATION =        1.3510D+07          PRECIPITATION =                  
           STREAMFLOW =                               STREAMFLOW =                  
     GW BOUNDARY FLOW =            100.72       GW BOUNDARY FLOW =              1.27


                                    OUT                                        OUT
                                    ---                                        ---
   EVAPOTRANSPIRATION =        3878053.24     EVAPOTRANSPIRATION =          84776.04
           STREAMFLOW =        4432583.67             STREAMFLOW =          80586.33
     GW BOUNDARY FLOW =           7742.49       GW BOUNDARY FLOW =             35.56

   INFLOWS - OUTFLOWS =        5191429.45     INFLOWS - OUTFLOWS =        -165396.66
             --------                                   --------

 TOTAL STORAGE CHANGE =        5174822.81         STORAGE CHANGE =        -159560.51
       --------------                             --------------
         LAND SURFACE =        2164321.66           LAND SURFACE =        -169194.91
            SOIL ZONE =        5586501.39              SOIL ZONE =           2344.16
     UNSATURATED ZONE =       -3125743.24       UNSATURATED ZONE =           6754.00
       SATURATED ZONE =         549739.26         SATURATED ZONE =            536.07

 OVERALL BUDGET ERROR =          16606.64           BUDGET ERROR =          -5836.15

  ***WARNING, FLUX RATES OFF > 3%

  PERCENT DISCREPANCY =              0.12    PERCENT DISCREPANCY =             -3.59



1
 SUMMARY VOLUMETRIC BUDGET FOR GSFLOW 
 DATE: 05 12 1991              CUMULATIVE TIME STEP:      12
 MODFLOW STRESS PERIOD      9     CURRENT TIME STEP:     224     ITERATIONS:       6

 -----------------------------------------------------------------------------------

   CUMULATIVE VOLUMES               L**3   RATES FOR THIS TIME STEP           L**3/T
   ------------------                      ------------------------

                                     IN                                         IN
                                     --                                         --
        PRECIPITATION =        1.4029D+07          PRECIPITATION =                  
           STREAMFLOW =                               STREAMFLOW =                  
     GW BOUNDARY FLOW =            109.77       GW BOUNDARY FLOW =              1.31


                                    OUT                                        OUT
                                    ---                                        ---
   EVAPOTRANSPIRATION =        4247824.72     EVAPOTRANSPIRATION =          62578.29
           STREAMFLOW =        4979429.52             STREAMFLOW =          80736.64
     GW BOUNDARY FLOW =           7990.48       GW BOUNDARY FLOW =             35.38

   INFLOWS - OUTFLOWS =        4794087.21     INFLOWS - OUTFLOWS =        -143349.00
             --------                                   --------

 TOTAL STORAGE CHANGE =        4816667.75         STORAGE CHANGE =        -138134.14
       --------------                             --------------
         LAND SURFACE =        1719829.11           LAND SURFACE =        -195667.45
            SOIL ZONE =        5626658.94              SOIL ZONE =          51159.83
     UNSATURATED ZONE =       -3069696.47       UNSATURATED ZONE =           7736.98
       SATURATED ZONE =         539870.58         SATURATED ZONE =          -1363.84

 OVERALL BUDGET ERROR =         -22580.54           BUDGET ERROR =          -5214.86

  ***WARNING, FLUX RATES OFF > 3%

  PERCENT DISCREPANCY =             -0.16    PERCENT DISCREPANCY =             -3.71



1
 SUMMARY VOLUMETRIC BUDGET FOR GSFLOW 
 DATE: 05 19 1991              CUMULATIVE TIME STEP:      19
 MODFLOW STRESS PERIOD      9     CURRENT TIME STEP:     231     ITERATIONS:       9

 -----------------------------------------------------------------------------------

   CUMULATIVE VOLUMES               L**3   RATES FOR THIS TIME STEP           L**3/T
   ------------------                      ------------------------

                                     IN                                         IN
                                     --                                         --
        PRECIPITATION =        1.4365D+07          PRECIPITATION =                  
           STREAMFLOW =                               STREAMFLOW =                  
     GW BOUNDARY FLOW =            119.08       GW BOUNDARY FLOW =              1.35


                                    OUT                                        OUT
                                    ---                                        ---
   EVAPOTRANSPIRATION =        4647742.46     EVAPOTRANSPIRATION =          17977.42
           STREAMFLOW =        5524262.51             STREAMFLOW =          70628.88
     GW BOUNDARY FLOW =           8237.21       GW BOUNDARY FLOW =             35.08

   INFLOWS - OUTFLOWS =        4185255.22     INFLOWS - OUTFLOWS =         -88640.03
             --------                                   --------

 TOTAL STORAGE CHANGE =        4250476.61         STORAGE CHANGE =         -81748.88
       --------------                             --------------
         LAND SURFACE =        1168636.62           LAND SURFACE =         -21196.61
            SOIL ZONE =        5566811.70              SOIL ZONE =         -65615.04
     UNSATURATED ZONE =       -3015644.85       UNSATURATED ZONE =           6623.25
       SATURATED ZONE =         530664.58         SATURATED ZONE =          -1560.98

 OVERALL BUDGET ERROR =         -65221.39           BUDGET ERROR =          -6891.15

  ***WARNING, FLUX RATES OFF > 3%

  PERCENT DISCREPANCY =             -0.45    PERCENT DISCREPANCY =             -8.09



1
 SUMMARY VOLUMETRIC BUDGET FOR GSFLOW 
 DATE: 05 26 1991              CUMULATIVE TIME STEP:      26
 MODFLOW STRESS PERIOD      9     CURRENT TIME STEP:     238     ITERATIONS:       8

 -----------------------------------------------------------------------------------

   CUMULATIVE VOLUMES               L**3   RATES FOR THIS TIME STEP           L**3/T
   ------------------                      ------------------------

                                     IN                                         IN
                                     --                                         --
        PRECIPITATION =        1.4426D+07          PRECIPITATION =                  
           STREAMFLOW =                               STREAMFLOW =                  
     GW BOUNDARY FLOW =            128.65       GW BOUNDARY FLOW =              1.38


                                    OUT                                        OUT
                                    ---                                        ---
   EVAPOTRANSPIRATION =        5294771.43     EVAPOTRANSPIRATION =          71053.23
           STREAMFLOW =        5973523.02             STREAMFLOW =          51883.96
     GW BOUNDARY FLOW =           8481.53       GW BOUNDARY FLOW =             34.67

   INFLOWS - OUTFLOWS =        3149850.28     INFLOWS - OUTFLOWS =        -122970.47
             --------                                   --------

 TOTAL STORAGE CHANGE =        3254697.34         STORAGE CHANGE =        -118498.64
       --------------                             --------------
         LAND SURFACE =         620424.10           LAND SURFACE =         -40812.89
            SOIL ZONE =        5092764.24              SOIL ZONE =         -79144.29
     UNSATURATED ZONE =       -2976669.19       UNSATURATED ZONE =           3501.30
       SATURATED ZONE =         518165.54         SATURATED ZONE =          -2043.41

 OVERALL BUDGET ERROR =        -104847.06           BUDGET ERROR =          -4471.83

  ***WARNING, FLUX RATES OFF > 3%

  PERCENT DISCREPANCY =             -0.72    PERCENT DISCREPANCY =             -3.70



1
 SUMMARY VOLUMETRIC BUDGET FOR GSFLOW 
 DATE: 06 02 1991              CUMULATIVE TIME STEP:       2
 MODFLOW STRESS PERIOD     10     CURRENT TIME STEP:     245     ITERATIONS:       8

 -----------------------------------------------------------------------------------

   CUMULATIVE VOLUMES               L**3   RATES FOR THIS TIME STEP           L**3/T
   ------------------                      ------------------------

                                     IN                                         IN
                                     --                                         --
        PRECIPITATION =        1.4671D+07          PRECIPITATION =                  
           STREAMFLOW =                               STREAMFLOW =                  
     GW BOUNDARY FLOW =            138.49       GW BOUNDARY FLOW =              1.42


                                    OUT                                        OUT
                                    ---                                        ---
   EVAPOTRANSPIRATION =        5839453.92     EVAPOTRANSPIRATION =         119332.66
           STREAMFLOW =        6301183.74             STREAMFLOW =          43045.71
     GW BOUNDARY FLOW =           8723.03       GW BOUNDARY FLOW =             34.38

   INFLOWS - OUTFLOWS =        2521752.60     INFLOWS - OUTFLOWS =        -162411.33
             --------                                   --------

 TOTAL STORAGE CHANGE =        2649730.99         STORAGE CHANGE =        -158693.77
       --------------                             --------------
         LAND SURFACE =         358942.20           LAND SURFACE =         -46420.51
            SOIL ZONE =        4750259.35              SOIL ZONE =        -111358.90
     UNSATURATED ZONE =       -2962649.86       UNSATURATED ZONE =           1376.20
       SATURATED ZONE =         503161.43         SATURATED ZONE =          -2291.37

 OVERALL BUDGET ERROR =        -127978.39           BUDGET ERROR =          -3717.56


  PERCENT DISCREPANCY =             -0.87    PERCENT DISCREPANCY =             -2.32



1
 SUMMARY VOLUMETRIC BUDGET FOR GSFLOW 
 DATE: 06 09 1991              CUMULATIVE TIME STEP:       9
 MODFLOW STRESS PERIOD     10     CURRENT TIME STEP:     252     ITERATIONS:       7

 -----------------------------------------------------------------------------------

   CUMULATIVE VOLUMES               L**3   RATES FOR THIS TIME STEP           L**3/T
   ------------------                      ------------------------

                                     IN                                         IN
                                     --                                         --
        PRECIPITATION =        1.4671D+07          PRECIPITATION =                  
           STREAMFLOW =                               STREAMFLOW =                  
     GW BOUNDARY FLOW =            148.60       GW BOUNDARY FLOW =              1.46


                                    OUT                                        OUT
                                    ---                                        ---
   EVAPOTRANSPIRATION =        6555449.85     EVAPOTRANSPIRATION =         166447.12
           STREAMFLOW =        6542209.80             STREAMFLOW =          29039.85
     GW BOUNDARY FLOW =           8962.10       GW BOUNDARY FLOW =             34.00

   INFLOWS - OUTFLOWS =        1564501.65     INFLOWS - OUTFLOWS =        -195519.50
             --------                                   --------

 TOTAL STORAGE CHANGE =        1708810.73         STORAGE CHANGE =        -193445.44
       --------------                             --------------
         LAND SURFACE =         151647.51           LAND SURFACE =         -33724.69
            SOIL ZONE =        4040386.70              SOIL ZONE =        -154644.31
     UNSATURATED ZONE =       -2967389.37       UNSATURATED ZONE =          -2036.45
       SATURATED ZONE =         484141.71         SATURATED ZONE =          -3040.96

 OVERALL BUDGET ERROR =        -144309.09           BUDGET ERROR =          -2074.06


  PERCENT DISCREPANCY =             -0.98    PERCENT DISCREPANCY =             -1.07



1
 SUMMARY VOLUMETRIC BUDGET FOR GSFLOW 
 DATE: 06 16 1991              CUMULATIVE TIME STEP:      16
 MODFLOW STRESS PERIOD     10     CURRENT TIME STEP:     259     ITERATIONS:       6

 -----------------------------------------------------------------------------------

   CUMULATIVE VOLUMES               L**3   RATES FOR THIS TIME STEP           L**3/T
   ------------------                      ------------------------

                                     IN                                         IN
                                     --                                         --
        PRECIPITATION =        1.4671D+07          PRECIPITATION =                  
           STREAMFLOW =                               STREAMFLOW =                  
     GW BOUNDARY FLOW =            158.99       GW BOUNDARY FLOW =              1.50


                                    OUT                                        OUT
                                    ---                                        ---
   EVAPOTRANSPIRATION =        7514421.01     EVAPOTRANSPIRATION =         108479.27
           STREAMFLOW =        6692487.22             STREAMFLOW =          18016.48
     GW BOUNDARY FLOW =           9197.38       GW BOUNDARY FLOW =             33.48

   INFLOWS - OUTFLOWS =         455028.19     INFLOWS - OUTFLOWS =        -126527.73
             --------                                   --------

 TOTAL STORAGE CHANGE =         608596.57         STORAGE CHANGE =        -125489.98
       --------------                             --------------
         LAND SURFACE =          42141.08           LAND SURFACE =          -7293.27
            SOIL ZONE =        3118428.51              SOIL ZONE =        -104355.82
     UNSATURATED ZONE =       -3009853.26       UNSATURATED ZONE =          -9406.01
       SATURATED ZONE =         457848.64         SATURATED ZONE =          -4436.01

 OVERALL BUDGET ERROR =        -153568.39           BUDGET ERROR =          -1037.74


  PERCENT DISCREPANCY =             -1.04    PERCENT DISCREPANCY =             -0.82



1
 SUMMARY VOLUMETRIC BUDGET FOR GSFLOW 
 DATE: 06 23 1991              CUMULATIVE TIME STEP:      23
 MODFLOW STRESS PERIOD     10     CURRENT TIME STEP:     266     ITERATIONS:       7

 -----------------------------------------------------------------------------------

   CUMULATIVE VOLUMES               L**3   RATES FOR THIS TIME STEP           L**3/T
   ------------------                      ------------------------

                                     IN                                         IN
                                     --                                         --
        PRECIPITATION =        1.4671D+07          PRECIPITATION =                  
           STREAMFLOW =                               STREAMFLOW =                  
     GW BOUNDARY FLOW =            169.69       GW BOUNDARY FLOW =              1.55


                                    OUT                                        OUT
                                    ---                                        ---
   EVAPOTRANSPIRATION =        7994810.27     EVAPOTRANSPIRATION =          34541.89
           STREAMFLOW =        6804265.13             STREAMFLOW =          15444.98
     GW BOUNDARY FLOW =           9430.95       GW BOUNDARY FLOW =             33.33

   INFLOWS - OUTFLOWS =        -137361.85     INFLOWS - OUTFLOWS =         -50018.66
             --------                                   --------

 TOTAL STORAGE CHANGE =          20700.25         STORAGE CHANGE =         -49723.69
       --------------                             --------------
         LAND SURFACE =          16911.50           LAND SURFACE =          -1658.21
            SOIL ZONE =        2663222.22              SOIL ZONE =         -34145.72
     UNSATURATED ZONE =       -3081233.59       UNSATURATED ZONE =          -8648.86
       SATURATED ZONE =         421759.98         SATURATED ZONE =          -5272.18

 OVERALL BUDGET ERROR =        -158062.10           BUDGET ERROR =           -294.96


  PERCENT DISCREPANCY =             -1.07    PERCENT DISCREPANCY =             -0.59



1
 SUMMARY VOLUMETRIC BUDGET FOR GSFLOW 
 DATE: 06 30 1991              CUMULATIVE TIME STEP:      30
 MODFLOW STRESS PERIOD     10     CURRENT TIME STEP:     273     ITERATIONS:       8

 -----------------------------------------------------------------------------------

[...]
                                    ---                                        ---
   EVAPOTRANSPIRATION =        7.3466D+07     EVAPOTRANSPIRATION =          84723.98
           STREAMFLOW =        7.4138D+07             STREAMFLOW =          13743.53
     GW BOUNDARY FLOW =          51167.36       GW BOUNDARY FLOW =             24.59

   INFLOWS - OUTFLOWS =       -1.4141D+07     INFLOWS - OUTFLOWS =         -98488.78
             --------                                   --------

 TOTAL STORAGE CHANGE =       -1.0475D+07         STORAGE CHANGE =         -97779.32
       --------------                             --------------
         LAND SURFACE =         524381.74           LAND SURFACE =         -24592.44
            SOIL ZONE =        2171930.45              SOIL ZONE =         -59119.32
     UNSATURATED ZONE =          39943.66       UNSATURATED ZONE =          -9180.44
       SATURATED ZONE =       -1.3220D+07         SATURATED ZONE =          -4898.30

 OVERALL BUDGET ERROR =       -3666583.49           BUDGET ERROR =           -709.45


  PERCENT DISCREPANCY =             -2.51    PERCENT DISCREPANCY =             -0.72



1
 SUMMARY VOLUMETRIC BUDGET FOR GSFLOW 
 DATE: 09 03 1995              CUMULATIVE TIME STEP:       3
 MODFLOW STRESS PERIOD     61     CURRENT TIME STEP:    1799     ITERATIONS:       6

 -----------------------------------------------------------------------------------

   CUMULATIVE VOLUMES               L**3   RATES FOR THIS TIME STEP           L**3/T
   ------------------                      ------------------------

                                     IN                                         IN
                                     --                                         --
        PRECIPITATION =        1.3351D+08          PRECIPITATION =                  
           STREAMFLOW =                               STREAMFLOW =                  
     GW BOUNDARY FLOW =           5604.77       GW BOUNDARY FLOW =              3.42


                                    OUT                                        OUT
                                    ---                                        ---
   EVAPOTRANSPIRATION =        7.4039D+07     EVAPOTRANSPIRATION =          77188.27
           STREAMFLOW =        7.4222D+07             STREAMFLOW =          10712.09
     GW BOUNDARY FLOW =          51338.25       GW BOUNDARY FLOW =             24.23

   INFLOWS - OUTFLOWS =       -1.4799D+07     INFLOWS - OUTFLOWS =         -87921.17
             --------                                   --------

 TOTAL STORAGE CHANGE =       -1.1129D+07         STORAGE CHANGE =         -87776.18
       --------------                             --------------
         LAND SURFACE =         372015.95           LAND SURFACE =         -19446.39
            SOIL ZONE =        1778196.88              SOIL ZONE =         -52191.37
     UNSATURATED ZONE =         -25980.61       UNSATURATED ZONE =          -9595.57
       SATURATED ZONE =       -1.3262D+07         SATURATED ZONE =          -6554.07

 OVERALL BUDGET ERROR =       -3670064.43           BUDGET ERROR =           -144.99


  PERCENT DISCREPANCY =             -2.51    PERCENT DISCREPANCY =             -0.17



1
 SUMMARY VOLUMETRIC BUDGET FOR GSFLOW 
 DATE: 09 10 1995              CUMULATIVE TIME STEP:      10
 MODFLOW STRESS PERIOD     61     CURRENT TIME STEP:    1806     ITERATIONS:       7

 -----------------------------------------------------------------------------------

   CUMULATIVE VOLUMES               L**3   RATES FOR THIS TIME STEP           L**3/T
   ------------------                      ------------------------

                                     IN                                         IN
                                     --                                         --
        PRECIPITATION =        1.3351D+08          PRECIPITATION =                  
           STREAMFLOW =                               STREAMFLOW =                  
     GW BOUNDARY FLOW =           5629.12       GW BOUNDARY FLOW =              3.52


                                    OUT                                        OUT
                                    ---                                        ---
   EVAPOTRANSPIRATION =        7.4474D+07     EVAPOTRANSPIRATION =          58133.02
           STREAMFLOW =        7.4293D+07             STREAMFLOW =           9595.01
     GW BOUNDARY FLOW =          51507.79       GW BOUNDARY FLOW =             24.19

   INFLOWS - OUTFLOWS =       -1.5305D+07     INFLOWS - OUTFLOWS =         -67748.70
             --------                                   --------

 TOTAL STORAGE CHANGE =       -1.1633D+07         STORAGE CHANGE =         -67609.13
       --------------                             --------------
         LAND SURFACE =         271470.10           LAND SURFACE =         -12572.77
            SOIL ZONE =        1480843.80              SOIL ZONE =         -39594.18
     UNSATURATED ZONE =         -89031.38       UNSATURATED ZONE =          -8818.61
       SATURATED ZONE =       -1.3306D+07         SATURATED ZONE =          -6634.79

 OVERALL BUDGET ERROR =       -3671044.71           BUDGET ERROR =           -139.57


  PERCENT DISCREPANCY =             -2.50    PERCENT DISCREPANCY =             -0.21



1
 SUMMARY VOLUMETRIC BUDGET FOR GSFLOW 
 DATE: 09 17 1995              CUMULATIVE TIME STEP:      17
 MODFLOW STRESS PERIOD     61     CURRENT TIME STEP:    1813     ITERATIONS:       7

 -----------------------------------------------------------------------------------

   CUMULATIVE VOLUMES               L**3   RATES FOR THIS TIME STEP           L**3/T
   ------------------                      ------------------------

                                     IN                                         IN
                                     --                                         --
        PRECIPITATION =        1.3351D+08          PRECIPITATION =                  
           STREAMFLOW =                               STREAMFLOW =                  
     GW BOUNDARY FLOW =           5654.15       GW BOUNDARY FLOW =              3.62


                                    OUT                                        OUT
                                    ---                                        ---
   EVAPOTRANSPIRATION =        7.4948D+07     EVAPOTRANSPIRATION =          54585.15
           STREAMFLOW =        7.4350D+07             STREAMFLOW =           7975.90
     GW BOUNDARY FLOW =          51676.33       GW BOUNDARY FLOW =             24.08

   INFLOWS - OUTFLOWS =       -1.5835D+07     INFLOWS - OUTFLOWS =         -62581.52
             --------                                   --------

 TOTAL STORAGE CHANGE =       -1.2163D+07         STORAGE CHANGE =         -62421.40
       --------------                             --------------
         LAND SURFACE =         180685.69           LAND SURFACE =          -9600.58
            SOIL ZONE =        1168188.94              SOIL ZONE =         -35839.31
     UNSATURATED ZONE =        -155067.03       UNSATURATED ZONE =          -9262.21
       SATURATED ZONE =       -1.3366D+07         SATURATED ZONE =          -7730.53

 OVERALL BUDGET ERROR =       -3672326.54           BUDGET ERROR =           -160.12


  PERCENT DISCREPANCY =             -2.49    PERCENT DISCREPANCY =             -0.26



1
 SUMMARY VOLUMETRIC BUDGET FOR GSFLOW 
 DATE: 09 24 1995              CUMULATIVE TIME STEP:      24
 MODFLOW STRESS PERIOD     61     CURRENT TIME STEP:    1820     ITERATIONS:       7

 -----------------------------------------------------------------------------------

   CUMULATIVE VOLUMES               L**3   RATES FOR THIS TIME STEP           L**3/T
   ------------------                      ------------------------

                                     IN                                         IN
                                     --                                         --
        PRECIPITATION =        1.3351D+08          PRECIPITATION =                  
           STREAMFLOW =                               STREAMFLOW =                  
     GW BOUNDARY FLOW =           5679.82       GW BOUNDARY FLOW =              3.71


                                    OUT                                        OUT
                                    ---                                        ---
   EVAPOTRANSPIRATION =        7.5287D+07     EVAPOTRANSPIRATION =          34922.47
           STREAMFLOW =        7.4404D+07             STREAMFLOW =           8175.03
     GW BOUNDARY FLOW =          51844.80       GW BOUNDARY FLOW =             24.11

   INFLOWS - OUTFLOWS =       -1.6229D+07     INFLOWS - OUTFLOWS =         -43117.90
             --------                                   --------

 TOTAL STORAGE CHANGE =       -1.2555D+07         STORAGE CHANGE =         -42995.52
       --------------                             --------------
         LAND SURFACE =         125692.07           LAND SURFACE =          -5511.04
            SOIL ZONE =         947261.41              SOIL ZONE =         -22529.00
     UNSATURATED ZONE =        -215962.18       UNSATURATED ZONE =          -8201.71
       SATURATED ZONE =       -1.3421D+07         SATURATED ZONE =          -6765.00

 OVERALL BUDGET ERROR =       -3673404.87           BUDGET ERROR =           -122.38


  PERCENT DISCREPANCY =             -2.48    PERCENT DISCREPANCY =             -0.28



1
 SUMMARY VOLUMETRIC BUDGET FOR GSFLOW 
 DATE: 10 01 1995              CUMULATIVE TIME STEP:       1
 MODFLOW STRESS PERIOD     62     CURRENT TIME STEP:    1827     ITERATIONS:       6

 -----------------------------------------------------------------------------------

   CUMULATIVE VOLUMES               L**3   RATES FOR THIS TIME STEP           L**3/T
   ------------------                      ------------------------

                                     IN                                         IN
                                     --                                         --
        PRECIPITATION =        1.3351D+08          PRECIPITATION =                  
           STREAMFLOW =                               STREAMFLOW =                  
     GW BOUNDARY FLOW =           5706.11       GW BOUNDARY FLOW =              3.79


                                    OUT                                        OUT
                                    ---                                        ---
   EVAPOTRANSPIRATION =        7.5425D+07     EVAPOTRANSPIRATION =          20769.13
           STREAMFLOW =        7.4466D+07             STREAMFLOW =           8829.76
     GW BOUNDARY FLOW =          52014.04       GW BOUNDARY FLOW =             24.18

   INFLOWS - OUTFLOWS =       -1.6430D+07     INFLOWS - OUTFLOWS =         -29619.28
             --------                                   --------

 TOTAL STORAGE CHANGE =       -1.2756D+07         STORAGE CHANGE =         -29534.66
       --------------                             --------------
         LAND SURFACE =         102504.92           LAND SURFACE =          -2862.19
            SOIL ZONE =         860441.02              SOIL ZONE =         -13441.73
     UNSATURATED ZONE =        -269158.52       UNSATURATED ZONE =          -7494.08
       SATURATED ZONE =       -1.3459D+07         SATURATED ZONE =          -5747.89

 OVERALL BUDGET ERROR =       -3673983.60           BUDGET ERROR =            -84.62


  PERCENT DISCREPANCY =             -2.48    PERCENT DISCREPANCY =             -0.29



1
 SUMMARY VOLUMETRIC BUDGET FOR GSFLOW 
 DATE: 10 08 1995              CUMULATIVE TIME STEP:       8
 MODFLOW STRESS PERIOD     62     CURRENT TIME STEP:    1834     ITERATIONS:       6

 -----------------------------------------------------------------------------------

   CUMULATIVE VOLUMES               L**3   RATES FOR THIS TIME STEP           L**3/T
   ------------------                      ------------------------

                                     IN                                         IN
                                     --                                         --
        PRECIPITATION =        1.3351D+08          PRECIPITATION =                  
           STREAMFLOW =                               STREAMFLOW =                  
     GW BOUNDARY FLOW =           5732.96       GW BOUNDARY FLOW =              3.87


                                    OUT                                        OUT
                                    ---                                        ---
   EVAPOTRANSPIRATION =        7.5586D+07     EVAPOTRANSPIRATION =          20158.20
           STREAMFLOW =        7.4526D+07             STREAMFLOW =           8515.16
     GW BOUNDARY FLOW =          52183.17       GW BOUNDARY FLOW =             24.17

   INFLOWS - OUTFLOWS =       -1.6650D+07     INFLOWS - OUTFLOWS =         -28693.66
             --------                                   --------

 TOTAL STORAGE CHANGE =       -1.2975D+07         STORAGE CHANGE =         -28596.98
       --------------                             --------------
         LAND SURFACE =          81951.51           LAND SURFACE =          -2502.54
            SOIL ZONE =         757889.58              SOIL ZONE =         -12530.56
     UNSATURATED ZONE =        -321206.11       UNSATURATED ZONE =          -7268.12
       SATURATED ZONE =       -1.3503D+07         SATURATED ZONE =          -6306.98

 OVERALL BUDGET ERROR =       -3674717.67           BUDGET ERROR =            -96.68


  PERCENT DISCREPANCY =             -2.48    PERCENT DISCREPANCY =             -0.34



1
 SUMMARY VOLUMETRIC BUDGET FOR GSFLOW 
 DATE: 10 15 1995              CUMULATIVE TIME STEP:      15
 MODFLOW STRESS PERIOD     62     CURRENT TIME STEP:    1841     ITERATIONS:       6

 -----------------------------------------------------------------------------------

   CUMULATIVE VOLUMES               L**3   RATES FOR THIS TIME STEP           L**3/T
   ------------------                      ------------------------

                                     IN                                         IN
                                     --                                         --
        PRECIPITATION =        1.3351D+08          PRECIPITATION =                  
           STREAMFLOW =                               STREAMFLOW =                  
     GW BOUNDARY FLOW =           5760.32       GW BOUNDARY FLOW =              3.94


                                    OUT                                        OUT
                                    ---                                        ---
   EVAPOTRANSPIRATION =        7.5744D+07     EVAPOTRANSPIRATION =          25336.25
           STREAMFLOW =        7.4583D+07             STREAMFLOW =           7887.02
     GW BOUNDARY FLOW =          52352.21       GW BOUNDARY FLOW =             24.13

   INFLOWS - OUTFLOWS =       -1.6866D+07     INFLOWS - OUTFLOWS =         -33243.47
             --------                                   --------

 TOTAL STORAGE CHANGE =       -1.3190D+07         STORAGE CHANGE =         -33115.31
       --------------                             --------------
         LAND SURFACE =          63226.18           LAND SURFACE =          -2687.15
            SOIL ZONE =         661809.96              SOIL ZONE =         -15230.75
     UNSATURATED ZONE =        -373055.82       UNSATURATED ZONE =          -7633.66
       SATURATED ZONE =       -1.3552D+07         SATURATED ZONE =          -7574.97

 OVERALL BUDGET ERROR =       -3675526.20           BUDGET ERROR =           -128.16


  PERCENT DISCREPANCY =             -2.47    PERCENT DISCREPANCY =             -0.39



1
 SUMMARY VOLUMETRIC BUDGET FOR GSFLOW 
 DATE: 10 22 1995              CUMULATIVE TIME STEP:      22
 MODFLOW STRESS PERIOD     62     CURRENT TIME STEP:    1848     ITERATIONS:       7

 -----------------------------------------------------------------------------------

   CUMULATIVE VOLUMES               L**3   RATES FOR THIS TIME STEP           L**3/T
   ------------------                      ------------------------

                                     IN                                         IN
                                     --                                         --
        PRECIPITATION =        1.3351D+08          PRECIPITATION =                  
           STREAMFLOW =                               STREAMFLOW =                  
     GW BOUNDARY FLOW =           5788.17       GW BOUNDARY FLOW =              4.01


                                    OUT                                        OUT
                                    ---                                        ---
   EVAPOTRANSPIRATION =        7.5887D+07     EVAPOTRANSPIRATION =           5909.02
           STREAMFLOW =        7.4639D+07             STREAMFLOW =           9051.76
     GW BOUNDARY FLOW =          52521.22       GW BOUNDARY FLOW =             24.23

   INFLOWS - OUTFLOWS =       -1.7064D+07     INFLOWS - OUTFLOWS =         -14981.00
             --------                                   --------

 TOTAL STORAGE CHANGE =       -1.3388D+07         STORAGE CHANGE =         -14925.04
       --------------                             --------------
         LAND SURFACE =          49141.37           LAND SURFACE =           -667.02
            SOIL ZONE =         577925.76              SOIL ZONE =          -3481.62
     UNSATURATED ZONE =        -423086.47       UNSATURATED ZONE =          -6309.74
       SATURATED ZONE =       -1.3602D+07         SATURATED ZONE =          -4477.88

 OVERALL BUDGET ERROR =       -3676340.50           BUDGET ERROR =            -55.96


  PERCENT DISCREPANCY =             -2.47    PERCENT DISCREPANCY =             -0.37



1
 SUMMARY VOLUMETRIC BUDGET FOR GSFLOW 
 DATE: 10 29 1995              CUMULATIVE TIME STEP:      29
 MODFLOW STRESS PERIOD     62     CURRENT TIME STEP:    1855     ITERATIONS:       5

 -----------------------------------------------------------------------------------

   CUMULATIVE VOLUMES               L**3   RATES FOR THIS TIME STEP           L**3/T
   ------------------                      ------------------------

                                     IN                                         IN
                                     --                                         --
        PRECIPITATION =        1.3351D+08          PRECIPITATION =                  
           STREAMFLOW =                               STREAMFLOW =                  
     GW BOUNDARY FLOW =           5816.45       GW BOUNDARY FLOW =              4.07


                                    OUT                                        OUT
                                    ---                                        ---
   EVAPOTRANSPIRATION =        7.5973D+07     EVAPOTRANSPIRATION =          14991.06
           STREAMFLOW =        7.4699D+07             STREAMFLOW =           8172.94
     GW BOUNDARY FLOW =          52690.62       GW BOUNDARY FLOW =             24.18

   INFLOWS - OUTFLOWS =       -1.7210D+07     INFLOWS - OUTFLOWS =         -23184.11
             --------                                   --------

 TOTAL STORAGE CHANGE =       -1.3533D+07         STORAGE CHANGE =         -23069.06
       --------------                             --------------
         LAND SURFACE =          42922.70           LAND SURFACE =          -1382.99
            SOIL ZONE =         527843.76              SOIL ZONE =          -8269.41
     UNSATURATED ZONE =        -468783.39       UNSATURATED ZONE =          -6524.20
       SATURATED ZONE =       -1.3645D+07         SATURATED ZONE =          -6903.68

 OVERALL BUDGET ERROR =       -3677061.55           BUDGET ERROR =           -115.05


  PERCENT DISCREPANCY =             -2.47    PERCENT DISCREPANCY =             -0.50



