1
 SUMMARY VOLUMETRIC BUDGET FOR GSFLOW 
 DATE: 10 07 1990              CUMULATIVE TIME STEP:       7
 MODFLOW STRESS PERIOD      2     CURRENT TIME STEP:       7     ITERATIONS:       7

 -----------------------------------------------------------------------------------

   CUMULATIVE VOLUMES               L**3   RATES FOR THIS TIME STEP           L**3/T
   ------------------                      ------------------------

                                     IN                                         IN
                                     --                                         --
        PRECIPITATION =                            PRECIPITATION =                  
           STREAMFLOW =                               STREAMFLOW =                  
     GW BOUNDARY FLOW =                         GW BOUNDARY FLOW =                  


                                    OUT                                        OUT
                                    ---                                        ---
   EVAPOTRANSPIRATION =         385017.29     EVAPOTRANSPIRATION =          11800.56
           STREAMFLOW =          45618.09             STREAMFLOW =           8122.74
     GW BOUNDARY FLOW =            252.77       GW BOUNDARY FLOW =             36.30

   INFLOWS - OUTFLOWS =        -430888.16     INFLOWS - OUTFLOWS =         -19959.60
             --------                                   --------

 TOTAL STORAGE CHANGE =        -429294.35         STORAGE CHANGE =         -19931.62
       --------------                             --------------
         LAND SURFACE =                             LAND SURFACE =                  
            SOIL ZONE =         -33383.80              SOIL ZONE =           -943.76
     UNSATURATED ZONE =        -502284.98       UNSATURATED ZONE =         -33330.53
       SATURATED ZONE =         106374.43         SATURATED ZONE =          14342.66

 OVERALL BUDGET ERROR =          -1593.80           BUDGET ERROR =            -27.98


  PERCENT DISCREPANCY =             -0.37    PERCENT DISCREPANCY =             -0.14



1
 SUMMARY VOLUMETRIC BUDGET FOR GSFLOW 
 DATE: 10 14 1990              CUMULATIVE TIME STEP:      14
 MODFLOW STRESS PERIOD      2     CURRENT TIME STEP:      14     ITERATIONS:       6

 -----------------------------------------------------------------------------------

   CUMULATIVE VOLUMES               L**3   RATES FOR THIS TIME STEP           L**3/T
   ------------------                      ------------------------

                                     IN                                         IN
                                     --                                         --
        PRECIPITATION =                            PRECIPITATION =                  
           STREAMFLOW =                               STREAMFLOW =                  
     GW BOUNDARY FLOW =                         GW BOUNDARY FLOW =                  


                                    OUT                                        OUT
                                    ---                                        ---
   EVAPOTRANSPIRATION =         665199.47     EVAPOTRANSPIRATION =          42294.07
           STREAMFLOW =         100291.53             STREAMFLOW =           7407.89
     GW BOUNDARY FLOW =            506.61       GW BOUNDARY FLOW =             36.24

   INFLOWS - OUTFLOWS =        -765997.61     INFLOWS - OUTFLOWS =         -49738.21
             --------                                   --------

 TOTAL STORAGE CHANGE =        -764031.06         STORAGE CHANGE =         -49701.11
       --------------                             --------------
         LAND SURFACE =                             LAND SURFACE =                  
            SOIL ZONE =         -58194.30              SOIL ZONE =          -4382.14
     UNSATURATED ZONE =        -877175.98       UNSATURATED ZONE =         -52122.24
       SATURATED ZONE =         171339.23         SATURATED ZONE =           6803.26

 OVERALL BUDGET ERROR =          -1966.55           BUDGET ERROR =            -37.09


  PERCENT DISCREPANCY =             -0.26    PERCENT DISCREPANCY =             -0.07



1
 SUMMARY VOLUMETRIC BUDGET FOR GSFLOW 
 DATE: 10 21 1990              CUMULATIVE TIME STEP:      21
 MODFLOW STRESS PERIOD      2     CURRENT TIME STEP:      21     ITERATIONS:       6

 -----------------------------------------------------------------------------------

   CUMULATIVE VOLUMES               L**3   RATES FOR THIS TIME STEP           L**3/T
   ------------------                      ------------------------

                                     IN                                         IN
                                     --                                         --
        PRECIPITATION =         188432.87          PRECIPITATION =                  
           STREAMFLOW =                               STREAMFLOW =                  
     GW BOUNDARY FLOW =                         GW BOUNDARY FLOW =                  


                                    OUT                                        OUT
                                    ---                                        ---
   EVAPOTRANSPIRATION =         815608.79     EVAPOTRANSPIRATION =          41836.91
           STREAMFLOW =         163012.51             STREAMFLOW =          10136.34
     GW BOUNDARY FLOW =            760.79       GW BOUNDARY FLOW =             36.37

   INFLOWS - OUTFLOWS =        -790949.22     INFLOWS - OUTFLOWS =         -52009.61
             --------                                   --------

 TOTAL STORAGE CHANGE =        -790169.47         STORAGE CHANGE =         -52000.80
       --------------                             --------------
         LAND SURFACE =          18885.57           LAND SURFACE =         -43558.49
            SOIL ZONE =          47305.92              SOIL ZONE =           2013.92
     UNSATURATED ZONE =       -1091205.36       UNSATURATED ZONE =         -21425.58
       SATURATED ZONE =         234844.41         SATURATED ZONE =          10969.35

 OVERALL BUDGET ERROR =           -779.75           BUDGET ERROR =             -8.81


  PERCENT DISCREPANCY =             -0.08    PERCENT DISCREPANCY =             -0.02



1
 SUMMARY VOLUMETRIC BUDGET FOR GSFLOW 
 DATE: 10 28 1990              CUMULATIVE TIME STEP:      28
 MODFLOW STRESS PERIOD      2     CURRENT TIME STEP:      28     ITERATIONS:       6

 -----------------------------------------------------------------------------------

   CUMULATIVE VOLUMES               L**3   RATES FOR THIS TIME STEP           L**3/T
   ------------------                      ------------------------

                                     IN                                         IN
                                     --                                         --
        PRECIPITATION =         188432.87          PRECIPITATION =                  
           STREAMFLOW =                               STREAMFLOW =                  
     GW BOUNDARY FLOW =                         GW BOUNDARY FLOW =                  


                                    OUT                                        OUT
                                    ---                                        ---
   EVAPOTRANSPIRATION =         944439.35     EVAPOTRANSPIRATION =          11827.86
           STREAMFLOW =         224348.81             STREAMFLOW =           8908.01
     GW BOUNDARY FLOW =           1013.98       GW BOUNDARY FLOW =             36.12

   INFLOWS - OUTFLOWS =        -981369.27     INFLOWS - OUTFLOWS =         -20771.99
             --------                                   --------

 TOTAL STORAGE CHANGE =        -980475.30         STORAGE CHANGE =         -20762.18
       --------------                             --------------
         LAND SURFACE =                             LAND SURFACE =                  
            SOIL ZONE =          18261.82              SOIL ZONE =          -3430.22
     UNSATURATED ZONE =       -1275147.97       UNSATURATED ZONE =         -23287.25
       SATURATED ZONE =         276410.85         SATURATED ZONE =           5955.29

 OVERALL BUDGET ERROR =           -893.98           BUDGET ERROR =             -9.81


  PERCENT DISCREPANCY =             -0.08    PERCENT DISCREPANCY =             -0.05



1
 SUMMARY VOLUMETRIC BUDGET FOR GSFLOW 
 DATE: 11 04 1990              CUMULATIVE TIME STEP:       4
 MODFLOW STRESS PERIOD      3     CURRENT TIME STEP:      35     ITERATIONS:       6

 -----------------------------------------------------------------------------------

   CUMULATIVE VOLUMES               L**3   RATES FOR THIS TIME STEP           L**3/T
   ------------------                      ------------------------

                                     IN                                         IN
                                     --                                         --
        PRECIPITATION =         703113.06          PRECIPITATION =                  
           STREAMFLOW =                               STREAMFLOW =                  
     GW BOUNDARY FLOW =                         GW BOUNDARY FLOW =                  


                                    OUT                                        OUT
                                    ---                                        ---
   EVAPOTRANSPIRATION =        1005140.03     EVAPOTRANSPIRATION =          26361.53
           STREAMFLOW =         294839.67             STREAMFLOW =          10626.51
     GW BOUNDARY FLOW =           1267.02       GW BOUNDARY FLOW =             36.14

   INFLOWS - OUTFLOWS =        -598133.66     INFLOWS - OUTFLOWS =         -37024.18
             --------                                   --------

 TOTAL STORAGE CHANGE =        -602406.67         STORAGE CHANGE =         -38302.65
       --------------                             --------------
         LAND SURFACE =         132159.65           LAND SURFACE =        -160480.33
            SOIL ZONE =         349910.66              SOIL ZONE =         132879.66
     UNSATURATED ZONE =       -1421002.46       UNSATURATED ZONE =         -20131.38
       SATURATED ZONE =         336525.48         SATURATED ZONE =           9429.40

 OVERALL BUDGET ERROR =           4273.01           BUDGET ERROR =           1278.46

  ***WARNING, FLUX RATES OFF > 3%

  PERCENT DISCREPANCY =              0.33    PERCENT DISCREPANCY =              3.39



1
 SUMMARY VOLUMETRIC BUDGET FOR GSFLOW 
 DATE: 11 11 1990              CUMULATIVE TIME STEP:      11
 MODFLOW STRESS PERIOD      3     CURRENT TIME STEP:      42     ITERATIONS:       6

 -----------------------------------------------------------------------------------

   CUMULATIVE VOLUMES               L**3   RATES FOR THIS TIME STEP           L**3/T
   ------------------                      ------------------------

                                     IN                                         IN
                                     --                                         --
        PRECIPITATION =         703113.06          PRECIPITATION =                  
           STREAMFLOW =                               STREAMFLOW =                  
     GW BOUNDARY FLOW =                         GW BOUNDARY FLOW =                  


                                    OUT                                        OUT
                                    ---                                        ---
   EVAPOTRANSPIRATION =        1082561.02     EVAPOTRANSPIRATION =          12158.08
           STREAMFLOW =         365832.95             STREAMFLOW =           9633.63
     GW BOUNDARY FLOW =           1519.12       GW BOUNDARY FLOW =             35.92

   INFLOWS - OUTFLOWS =        -746800.03     INFLOWS - OUTFLOWS =         -21827.64
             --------                                   --------

 TOTAL STORAGE CHANGE =        -751180.77         STORAGE CHANGE =         -21816.78
       --------------                             --------------
         LAND SURFACE =            595.09           LAND SURFACE =          -1416.54
            SOIL ZONE =         422043.81              SOIL ZONE =          -5448.95
     UNSATURATED ZONE =       -1560640.69       UNSATURATED ZONE =         -19918.28
       SATURATED ZONE =         386820.99         SATURATED ZONE =           4966.98

 OVERALL BUDGET ERROR =           4380.74           BUDGET ERROR =            -10.86


  PERCENT DISCREPANCY =              0.30    PERCENT DISCREPANCY =             -0.05



1
 SUMMARY VOLUMETRIC BUDGET FOR GSFLOW 
 DATE: 11 18 1990              CUMULATIVE TIME STEP:      18
 MODFLOW STRESS PERIOD      3     CURRENT TIME STEP:      49     ITERATIONS:       6

 -----------------------------------------------------------------------------------

   CUMULATIVE VOLUMES               L**3   RATES FOR THIS TIME STEP           L**3/T
   ------------------                      ------------------------

                                     IN                                         IN
                                     --                                         --
        PRECIPITATION =         747883.35          PRECIPITATION =                  
           STREAMFLOW =                               STREAMFLOW =                  
     GW BOUNDARY FLOW =                         GW BOUNDARY FLOW =                  


                                    OUT                                        OUT
                                    ---                                        ---
   EVAPOTRANSPIRATION =        1155132.31     EVAPOTRANSPIRATION =           5079.50
           STREAMFLOW =         437459.04             STREAMFLOW =          10657.11
     GW BOUNDARY FLOW =           1770.44       GW BOUNDARY FLOW =             35.88

   INFLOWS - OUTFLOWS =        -846478.43     INFLOWS - OUTFLOWS =         -15772.48
             --------                                   --------

 TOTAL STORAGE CHANGE =        -850844.19         STORAGE CHANGE =         -15776.00
       --------------                             --------------
         LAND SURFACE =           7868.08           LAND SURFACE =          -3691.47
            SOIL ZONE =         404073.46              SOIL ZONE =           -743.74
     UNSATURATED ZONE =       -1694244.36       UNSATURATED ZONE =         -18666.75
       SATURATED ZONE =         431458.59         SATURATED ZONE =           7325.96

 OVERALL BUDGET ERROR =           4365.75           BUDGET ERROR =              3.51


  PERCENT DISCREPANCY =              0.27    PERCENT DISCREPANCY =              0.02



1
 SUMMARY VOLUMETRIC BUDGET FOR GSFLOW 
 DATE: 11 25 1990              CUMULATIVE TIME STEP:      25
 MODFLOW STRESS PERIOD      3     CURRENT TIME STEP:      56     ITERATIONS:       6

 -----------------------------------------------------------------------------------

   CUMULATIVE VOLUMES               L**3   RATES FOR THIS TIME STEP           L**3/T
   ------------------                      ------------------------

                                     IN                                         IN
                                     --                                         --
        PRECIPITATION =        1009043.38          PRECIPITATION =         186542.88
           STREAMFLOW =                               STREAMFLOW =                  
     GW BOUNDARY FLOW =                         GW BOUNDARY FLOW =                  


                                    OUT                                        OUT
                                    ---                                        ---
   EVAPOTRANSPIRATION =        1215740.36     EVAPOTRANSPIRATION =           3755.39
           STREAMFLOW =         513371.96             STREAMFLOW =          10862.25
     GW BOUNDARY FLOW =           2021.38       GW BOUNDARY FLOW =             35.79

   INFLOWS - OUTFLOWS =        -722090.32     INFLOWS - OUTFLOWS =         171889.44
             --------                                   --------

 TOTAL STORAGE CHANGE =        -728635.62         STORAGE CHANGE =         169964.39
       --------------                             --------------
         LAND SURFACE =          86180.68           LAND SURFACE =          69567.13
            SOIL ZONE =         526113.27              SOIL ZONE =         112016.06
     UNSATURATED ZONE =       -1822286.73       UNSATURATED ZONE =         -17965.65
       SATURATED ZONE =         481357.10         SATURATED ZONE =           6346.85

 OVERALL BUDGET ERROR =           6545.30           BUDGET ERROR =           1925.06


  PERCENT DISCREPANCY =              0.38    PERCENT DISCREPANCY =              1.04



1
 SUMMARY VOLUMETRIC BUDGET FOR GSFLOW 
 DATE: 12 02 1990              CUMULATIVE TIME STEP:       2
 MODFLOW STRESS PERIOD      4     CURRENT TIME STEP:      63     ITERATIONS:       6

 -----------------------------------------------------------------------------------

   CUMULATIVE VOLUMES               L**3   RATES FOR THIS TIME STEP           L**3/T
   ------------------                      ------------------------

                                     IN                                         IN
                                     --                                         --
        PRECIPITATION =        1449284.55          PRECIPITATION =                  
           STREAMFLOW =                               STREAMFLOW =                  
     GW BOUNDARY FLOW =                         GW BOUNDARY FLOW =                  


                                    OUT                                        OUT
                                    ---                                        ---
   EVAPOTRANSPIRATION =        1222257.39     EVAPOTRANSPIRATION =            236.02
           STREAMFLOW =         590492.48             STREAMFLOW =          11058.18
     GW BOUNDARY FLOW =           2271.86       GW BOUNDARY FLOW =             35.77

   INFLOWS - OUTFLOWS =        -365737.18     INFLOWS - OUTFLOWS =         -11329.97
             --------                                   --------

 TOTAL STORAGE CHANGE =        -373418.27         STORAGE CHANGE =         -11339.01
       --------------                             --------------
         LAND SURFACE =         486845.62           LAND SURFACE =           -339.04
            SOIL ZONE =         558394.07              SOIL ZONE =            150.65
     UNSATURATED ZONE =       -1945530.76       UNSATURATED ZONE =         -17311.56
       SATURATED ZONE =         526872.71         SATURATED ZONE =           6160.94

 OVERALL BUDGET ERROR =           7681.09           BUDGET ERROR =              9.04


  PERCENT DISCREPANCY =              0.42    PERCENT DISCREPANCY =              0.08



1
 SUMMARY VOLUMETRIC BUDGET FOR GSFLOW 
 DATE: 12 09 1990              CUMULATIVE TIME STEP:       9
 MODFLOW STRESS PERIOD      4     CURRENT TIME STEP:      70     ITERATIONS:       6

 -----------------------------------------------------------------------------------

   CUMULATIVE VOLUMES               L**3   RATES FOR THIS TIME STEP           L**3/T
   ------------------                      ------------------------

                                     IN                                         IN
                                     --                                         --
        PRECIPITATION =        1449284.55          PRECIPITATION =                  
           STREAMFLOW =                               STREAMFLOW =                  
     GW BOUNDARY FLOW =                         GW BOUNDARY FLOW =                  


                                    OUT                                        OUT
                                    ---                                        ---
   EVAPOTRANSPIRATION =        1298352.56     EVAPOTRANSPIRATION =          13900.77
           STREAMFLOW =         668123.00             STREAMFLOW =          10906.69
     GW BOUNDARY FLOW =           2521.82       GW BOUNDARY FLOW =             35.65

   INFLOWS - OUTFLOWS =        -519712.83     INFLOWS - OUTFLOWS =         -24843.11
             --------                                   --------

 TOTAL STORAGE CHANGE =        -531894.16         STORAGE CHANGE =         -24937.78
       --------------                             --------------
         LAND SURFACE =          67215.41           LAND SURFACE =         -45889.70
            SOIL ZONE =         900822.50              SOIL ZONE =          33512.89
     UNSATURATED ZONE =       -2063770.52       UNSATURATED ZONE =         -16536.26
       SATURATED ZONE =         563838.33         SATURATED ZONE =           3975.28

 OVERALL BUDGET ERROR =          12181.33           BUDGET ERROR =             94.67


  PERCENT DISCREPANCY =              0.62    PERCENT DISCREPANCY =              0.38



1
 SUMMARY VOLUMETRIC BUDGET FOR GSFLOW 
 DATE: 12 16 1990              CUMULATIVE TIME STEP:      16
 MODFLOW STRESS PERIOD      4     CURRENT TIME STEP:      77     ITERATIONS:       5

 -----------------------------------------------------------------------------------

   CUMULATIVE VOLUMES               L**3   RATES FOR THIS TIME STEP           L**3/T
   ------------------                      ------------------------

                                     IN                                         IN
                                     --                                         --
        PRECIPITATION =        1804962.84          PRECIPITATION =                  
           STREAMFLOW =                               STREAMFLOW =                  
     GW BOUNDARY FLOW =                         GW BOUNDARY FLOW =                  


                                    OUT                                        OUT
                                    ---                                        ---
   EVAPOTRANSPIRATION =        1326691.05     EVAPOTRANSPIRATION =                  
           STREAMFLOW =         747703.33             STREAMFLOW =          11499.58
     GW BOUNDARY FLOW =           2771.23       GW BOUNDARY FLOW =             35.61

   INFLOWS - OUTFLOWS =        -272202.77     INFLOWS - OUTFLOWS =         -11535.19
             --------                                   --------

 TOTAL STORAGE CHANGE =        -286698.75         STORAGE CHANGE =         -11546.47
       --------------                             --------------
         LAND SURFACE =         252566.27           LAND SURFACE =                  
            SOIL ZONE =        1043222.75              SOIL ZONE =            -19.11
     UNSATURATED ZONE =       -2177451.36       UNSATURATED ZONE =         -15979.17
       SATURATED ZONE =         594963.43         SATURATED ZONE =           4451.80

 OVERALL BUDGET ERROR =          14495.98           BUDGET ERROR =             11.28


  PERCENT DISCREPANCY =              0.70    PERCENT DISCREPANCY =              0.10



1
 SUMMARY VOLUMETRIC BUDGET FOR GSFLOW 
 DATE: 12 23 1990              CUMULATIVE TIME STEP:      23
 MODFLOW STRESS PERIOD      4     CURRENT TIME STEP:      84     ITERATIONS:       6

 -----------------------------------------------------------------------------------

   CUMULATIVE VOLUMES               L**3   RATES FOR THIS TIME STEP           L**3/T
   ------------------                      ------------------------

                                     IN                                         IN
                                     --                                         --
        PRECIPITATION =        2276236.55          PRECIPITATION =                  
           STREAMFLOW =                               STREAMFLOW =                  
     GW BOUNDARY FLOW =              0.08       GW BOUNDARY FLOW =              0.04


                                    OUT                                        OUT
                                    ---                                        ---
   EVAPOTRANSPIRATION =        1327753.01     EVAPOTRANSPIRATION =                  
           STREAMFLOW =         828385.79             STREAMFLOW =          11548.85
     GW BOUNDARY FLOW =           3020.26       GW BOUNDARY FLOW =             35.57

   INFLOWS - OUTFLOWS =         117077.56     INFLOWS - OUTFLOWS =         -11584.38
             --------                                   --------

 TOTAL STORAGE CHANGE =         102512.43         STORAGE CHANGE =         -11593.89
       --------------                             --------------
         LAND SURFACE =         722784.34           LAND SURFACE =                  
            SOIL ZONE =        1043415.00              SOIL ZONE =             55.32
     UNSATURATED ZONE =       -2286957.82       UNSATURATED ZONE =         -15399.58
       SATURATED ZONE =         623270.72         SATURATED ZONE =           3750.38

 OVERALL BUDGET ERROR =          14565.13           BUDGET ERROR =              9.51


  PERCENT DISCREPANCY =              0.64    PERCENT DISCREPANCY =              0.08



1
 SUMMARY VOLUMETRIC BUDGET FOR GSFLOW 
 DATE: 12 30 1990              CUMULATIVE TIME STEP:      30
 MODFLOW STRESS PERIOD      4     CURRENT TIME STEP:      91     ITERATIONS:       5

 -----------------------------------------------------------------------------------

   CUMULATIVE VOLUMES               L**3   RATES FOR THIS TIME STEP           L**3/T
   ------------------                      ------------------------

                                     IN                                         IN
                                     --                                         --
        PRECIPITATION =        2276236.55          PRECIPITATION =                  
           STREAMFLOW =                               STREAMFLOW =                  
     GW BOUNDARY FLOW =              0.77       GW BOUNDARY FLOW =              0.14


                                    OUT                                        OUT
                                    ---                                        ---
   EVAPOTRANSPIRATION =        1328323.17     EVAPOTRANSPIRATION =                  
           STREAMFLOW =         909495.89             STREAMFLOW =          11619.00
     GW BOUNDARY FLOW =           3269.37       GW BOUNDARY FLOW =             35.60

   INFLOWS - OUTFLOWS =          35148.89     INFLOWS - OUTFLOWS =         -11654.46
             --------                                   --------

 TOTAL STORAGE CHANGE =          20524.65         STORAGE CHANGE =         -11662.63
       --------------                             --------------
         LAND SURFACE =         722216.94           LAND SURFACE =                  
            SOIL ZONE =        1043992.70              SOIL ZONE =            100.63
     UNSATURATED ZONE =       -2392558.04       UNSATURATED ZONE =         -14855.58
       SATURATED ZONE =         646872.82         SATURATED ZONE =           3092.32

 OVERALL BUDGET ERROR =          14624.24           BUDGET ERROR =              8.17


  PERCENT DISCREPANCY =              0.64    PERCENT DISCREPANCY =              0.07



1
 SUMMARY VOLUMETRIC BUDGET FOR GSFLOW 
 DATE: 01 06 1991              CUMULATIVE TIME STEP:       6
 MODFLOW STRESS PERIOD      5     CURRENT TIME STEP:      98     ITERATIONS:       5

 -----------------------------------------------------------------------------------

   CUMULATIVE VOLUMES               L**3   RATES FOR THIS TIME STEP           L**3/T
   ------------------                      ------------------------

                                     IN                                         IN
                                     --                                         --
        PRECIPITATION =        2276236.55          PRECIPITATION =                  
           STREAMFLOW =                               STREAMFLOW =                  
     GW BOUNDARY FLOW =              2.09       GW BOUNDARY FLOW =              0.22


                                    OUT                                        OUT
                                    ---                                        ---
   EVAPOTRANSPIRATION =        1355406.87     EVAPOTRANSPIRATION =           3191.05
           STREAMFLOW =         991272.46             STREAMFLOW =          11723.36
     GW BOUNDARY FLOW =           3519.25       GW BOUNDARY FLOW =             35.75

   INFLOWS - OUTFLOWS =         -73959.95     INFLOWS - OUTFLOWS =         -14949.94
             --------                                   --------

 TOTAL STORAGE CHANGE =         -91212.21         STORAGE CHANGE =         -15084.35
       --------------                             --------------
         LAND SURFACE =         592099.78           LAND SURFACE =          -8106.31
            SOIL ZONE =        1145209.51              SOIL ZONE =           4886.45
     UNSATURATED ZONE =       -2494211.20       UNSATURATED ZONE =         -14291.57
       SATURATED ZONE =         665689.42         SATURATED ZONE =           2427.07

 OVERALL BUDGET ERROR =          17252.27           BUDGET ERROR =            134.41


  PERCENT DISCREPANCY =              0.73    PERCENT DISCREPANCY =              0.90



1
 SUMMARY VOLUMETRIC BUDGET FOR GSFLOW 
 DATE: 01 13 1991              CUMULATIVE TIME STEP:      13
 MODFLOW STRESS PERIOD      5     CURRENT TIME STEP:     105     ITERATIONS:       6

 -----------------------------------------------------------------------------------

   CUMULATIVE VOLUMES               L**3   RATES FOR THIS TIME STEP           L**3/T
   ------------------                      ------------------------

                                     IN                                         IN
                                     --                                         --
        PRECIPITATION =        2596386.94          PRECIPITATION =          10327.43
           STREAMFLOW =                               STREAMFLOW =                  
     GW BOUNDARY FLOW =              4.01       GW BOUNDARY FLOW =              0.31


                                    OUT                                        OUT
                                    ---                                        ---
   EVAPOTRANSPIRATION =        1422349.93     EVAPOTRANSPIRATION =          18637.28
           STREAMFLOW =        1073470.36             STREAMFLOW =          11719.82
     GW BOUNDARY FLOW =           3769.48       GW BOUNDARY FLOW =             35.73

   INFLOWS - OUTFLOWS =          96801.19     INFLOWS - OUTFLOWS =         -20065.08
             --------                                   --------

 TOTAL STORAGE CHANGE =          74442.91         STORAGE CHANGE =         -21334.29
       --------------                             --------------
         LAND SURFACE =         529885.08           LAND SURFACE =        -135264.70
            SOIL ZONE =        1457470.86              SOIL ZONE =         126487.22
     UNSATURATED ZONE =       -2591810.98       UNSATURATED ZONE =         -13730.34
       SATURATED ZONE =         678897.63         SATURATED ZONE =           1173.53

 OVERALL BUDGET ERROR =          22358.28           BUDGET ERROR =           1269.21

  ***WARNING, FLUX RATES OFF > 3%

  PERCENT DISCREPANCY =              0.86    PERCENT DISCREPANCY =              4.09



1
 SUMMARY VOLUMETRIC BUDGET FOR GSFLOW 
 DATE: 01 20 1991              CUMULATIVE TIME STEP:      20
 MODFLOW STRESS PERIOD      5     CURRENT TIME STEP:     112     ITERATIONS:       5

 -----------------------------------------------------------------------------------

   CUMULATIVE VOLUMES               L**3   RATES FOR THIS TIME STEP           L**3/T
   ------------------                      ------------------------

                                     IN                                         IN
                                     --                                         --
        PRECIPITATION =        2596386.94          PRECIPITATION =                  
           STREAMFLOW =                               STREAMFLOW =                  
     GW BOUNDARY FLOW =              6.54       GW BOUNDARY FLOW =              0.40


                                    OUT                                        OUT
                                    ---                                        ---
   EVAPOTRANSPIRATION =        1499723.07     EVAPOTRANSPIRATION =           2462.39
           STREAMFLOW =        1156537.19             STREAMFLOW =          11885.48
     GW BOUNDARY FLOW =           4019.73       GW BOUNDARY FLOW =             35.75

   INFLOWS - OUTFLOWS =         -63886.51     INFLOWS - OUTFLOWS =         -14383.22
             --------                                   --------

 TOTAL STORAGE CHANGE =         -87020.47         STORAGE CHANGE =         -14378.64
       --------------                             --------------
         LAND SURFACE =         356897.61           LAND SURFACE =           -433.81
            SOIL ZONE =        1553056.30              SOIL ZONE =          -1963.33
     UNSATURATED ZONE =       -2685516.31       UNSATURATED ZONE =         -13167.48
       SATURATED ZONE =         688541.54         SATURATED ZONE =           1185.97

 OVERALL BUDGET ERROR =          23133.97           BUDGET ERROR =             -4.58


  PERCENT DISCREPANCY =              0.87    PERCENT DISCREPANCY =             -0.03



1
 SUMMARY VOLUMETRIC BUDGET FOR GSFLOW 
 DATE: 01 27 1991              CUMULATIVE TIME STEP:      27
 MODFLOW STRESS PERIOD      5     CURRENT TIME STEP:     119     ITERATIONS:       5

 -----------------------------------------------------------------------------------

   CUMULATIVE VOLUMES               L**3   RATES FOR THIS TIME STEP           L**3/T
   ------------------                      ------------------------

                                     IN                                         IN
                                     --                                         --
        PRECIPITATION =        2596386.94          PRECIPITATION =                  
           STREAMFLOW =                               STREAMFLOW =                  
     GW BOUNDARY FLOW =              9.65       GW BOUNDARY FLOW =              0.48


                                    OUT                                        OUT
                                    ---                                        ---
   EVAPOTRANSPIRATION =        1525622.98     EVAPOTRANSPIRATION =           1702.90
           STREAMFLOW =        1239733.00             STREAMFLOW =          11907.19
     GW BOUNDARY FLOW =           4269.94       GW BOUNDARY FLOW =             35.74

   INFLOWS - OUTFLOWS =        -173229.32     INFLOWS - OUTFLOWS =         -13645.35
             --------                                   --------

 TOTAL STORAGE CHANGE =        -196571.28         STORAGE CHANGE =         -13655.30
       --------------                             --------------
         LAND SURFACE =         323033.10           LAND SURFACE =           -547.84
            SOIL ZONE =        1561701.34              SOIL ZONE =          -1066.78
     UNSATURATED ZONE =       -2775731.14       UNSATURATED ZONE =         -12671.96
       SATURATED ZONE =         694424.99         SATURATED ZONE =            631.27

 OVERALL BUDGET ERROR =          23341.96           BUDGET ERROR =              9.95


  PERCENT DISCREPANCY =              0.84    PERCENT DISCREPANCY =              0.07



1
 SUMMARY VOLUMETRIC BUDGET FOR GSFLOW 
 DATE: 02 03 1991              CUMULATIVE TIME STEP:       3
 MODFLOW STRESS PERIOD      6     CURRENT TIME STEP:     126     ITERATIONS:       6

 -----------------------------------------------------------------------------------

   CUMULATIVE VOLUMES               L**3   RATES FOR THIS TIME STEP           L**3/T
   ------------------                      ------------------------

                                     IN                                         IN
                                     --                                         --
        PRECIPITATION =        3228422.31          PRECIPITATION =          30459.53
           STREAMFLOW =                               STREAMFLOW =                  
     GW BOUNDARY FLOW =             13.31       GW BOUNDARY FLOW =              0.55


                                    OUT                                        OUT
                                    ---                                        ---
   EVAPOTRANSPIRATION =        1632638.70     EVAPOTRANSPIRATION =          21403.93
           STREAMFLOW =        1324516.20             STREAMFLOW =          12211.85
     GW BOUNDARY FLOW =           4520.06       GW BOUNDARY FLOW =             35.74

   INFLOWS - OUTFLOWS =         266760.66     INFLOWS - OUTFLOWS =          -3191.42
             --------                                   --------

 TOTAL STORAGE CHANGE =         236277.96         STORAGE CHANGE =          -3468.97
       --------------                             --------------
         LAND SURFACE =         157683.43           LAND SURFACE =         -26376.34
            SOIL ZONE =        2245220.85              SOIL ZONE =          35088.22
     UNSATURATED ZONE =       -2862588.50       UNSATURATED ZONE =         -12246.30
       SATURATED ZONE =         695961.67         SATURATED ZONE =             65.44

 OVERALL BUDGET ERROR =          30482.70           BUDGET ERROR =            277.54


  PERCENT DISCREPANCY =              0.95    PERCENT DISCREPANCY =              0.82



1
 SUMMARY VOLUMETRIC BUDGET FOR GSFLOW 
 DATE: 02 10 1991              CUMULATIVE TIME STEP:      10
 MODFLOW STRESS PERIOD      6     CURRENT TIME STEP:     133     ITERATIONS:       5

 -----------------------------------------------------------------------------------

   CUMULATIVE VOLUMES               L**3   RATES FOR THIS TIME STEP           L**3/T
   ------------------                      ------------------------

                                     IN                                         IN
                                     --                                         --
        PRECIPITATION =        3510173.01          PRECIPITATION =                  
           STREAMFLOW =                               STREAMFLOW =                  
     GW BOUNDARY FLOW =             17.48       GW BOUNDARY FLOW =              0.63


                                    OUT                                        OUT
                                    ---                                        ---
   EVAPOTRANSPIRATION =        1800419.71     EVAPOTRANSPIRATION =          25669.07
           STREAMFLOW =        1410475.02             STREAMFLOW =          12139.80
     GW BOUNDARY FLOW =           4770.14       GW BOUNDARY FLOW =             35.72

   INFLOWS - OUTFLOWS =         294525.62     INFLOWS - OUTFLOWS =         -37843.96
             --------                                   --------

 TOTAL STORAGE CHANGE =         261480.88         STORAGE CHANGE =         -37760.73
       --------------                             --------------
         LAND SURFACE =          75877.11           LAND SURFACE =          -8469.89
            SOIL ZONE =        2437107.45              SOIL ZONE =         -17107.04
     UNSATURATED ZONE =       -2946008.08       UNSATURATED ZONE =         -11737.11
       SATURATED ZONE =         694503.80         SATURATED ZONE =           -446.70

 OVERALL BUDGET ERROR =          33044.74           BUDGET ERROR =            -83.23


  PERCENT DISCREPANCY =              0.95    PERCENT DISCREPANCY =             -0.22



1
 SUMMARY VOLUMETRIC BUDGET FOR GSFLOW 
 DATE: 02 17 1991              CUMULATIVE TIME STEP:      17
 MODFLOW STRESS PERIOD      6     CURRENT TIME STEP:     140     ITERATIONS:       5

 -----------------------------------------------------------------------------------

   CUMULATIVE VOLUMES               L**3   RATES FOR THIS TIME STEP           L**3/T
   ------------------                      ------------------------

                                     IN                                         IN
                                     --                                         --
        PRECIPITATION =        3510173.01          PRECIPITATION =                  
           STREAMFLOW =                               STREAMFLOW =                  
     GW BOUNDARY FLOW =             22.15       GW BOUNDARY FLOW =              0.70


                                    OUT                                        OUT
                                    ---                                        ---
   EVAPOTRANSPIRATION =        2043479.30     EVAPOTRANSPIRATION =          23705.65
           STREAMFLOW =        1495012.32             STREAMFLOW =          12074.61
     GW BOUNDARY FLOW =           5020.07       GW BOUNDARY FLOW =             35.68

   INFLOWS - OUTFLOWS =         -33316.52     INFLOWS - OUTFLOWS =         -35815.25
             --------                                   --------

 TOTAL STORAGE CHANGE =         -65556.58         STORAGE CHANGE =         -35735.56
       --------------                             --------------
         LAND SURFACE =          17890.99           LAND SURFACE =          -1143.67
            SOIL ZONE =        2253358.05              SOIL ZONE =         -22470.55
     UNSATURATED ZONE =       -3025928.82       UNSATURATED ZONE =         -11136.33
       SATURATED ZONE =         689122.50         SATURATED ZONE =           -985.02

 OVERALL BUDGET ERROR =          32240.06           BUDGET ERROR =            -79.69


  PERCENT DISCREPANCY =              0.91    PERCENT DISCREPANCY =             -0.22



1
 SUMMARY VOLUMETRIC BUDGET FOR GSFLOW 
 DATE: 02 24 1991              CUMULATIVE TIME STEP:      24
 MODFLOW STRESS PERIOD      6     CURRENT TIME STEP:     147     ITERATIONS:       5

 -----------------------------------------------------------------------------------

   CUMULATIVE VOLUMES               L**3   RATES FOR THIS TIME STEP           L**3/T
   ------------------                      ------------------------

                                     IN                                         IN
                                     --                                         --
        PRECIPITATION =        3510173.01          PRECIPITATION =                  
           STREAMFLOW =                               STREAMFLOW =                  
     GW BOUNDARY FLOW =             27.30       GW BOUNDARY FLOW =              0.76


                                    OUT                                        OUT
                                    ---                                        ---
   EVAPOTRANSPIRATION =        2256919.87     EVAPOTRANSPIRATION =          21630.12
           STREAMFLOW =        1579088.97             STREAMFLOW =          11985.81
     GW BOUNDARY FLOW =           5269.09       GW BOUNDARY FLOW =             35.48

   INFLOWS - OUTFLOWS =        -331077.63     INFLOWS - OUTFLOWS =         -33650.65
             --------                                   --------

 TOTAL STORAGE CHANGE =        -362593.86         STORAGE CHANGE =         -33574.74
       --------------                             --------------
         LAND SURFACE =           7435.72           LAND SURFACE =           -217.69
            SOIL ZONE =        2052125.01              SOIL ZONE =         -21120.57
     UNSATURATED ZONE =       -3102162.43       UNSATURATED ZONE =         -10715.31
       SATURATED ZONE =         680007.06         SATURATED ZONE =          -1521.17

 OVERALL BUDGET ERROR =          31516.23           BUDGET ERROR =            -75.92


  PERCENT DISCREPANCY =              0.82    PERCENT DISCREPANCY =             -0.23



1
 SUMMARY VOLUMETRIC BUDGET FOR GSFLOW 
 DATE: 03 03 1991              CUMULATIVE TIME STEP:       3
 MODFLOW STRESS PERIOD      7     CURRENT TIME STEP:     154     ITERATIONS:       5

 -----------------------------------------------------------------------------------

   CUMULATIVE VOLUMES               L**3   RATES FOR THIS TIME STEP           L**3/T
   ------------------                      ------------------------

                                     IN                                         IN
                                     --                                         --
        PRECIPITATION =        6220189.63          PRECIPITATION =        1243187.24
           STREAMFLOW =                               STREAMFLOW =                  
     GW BOUNDARY FLOW =             32.90       GW BOUNDARY FLOW =              0.83


                                    OUT                                        OUT
                                    ---                                        ---
   EVAPOTRANSPIRATION =        2408992.96     EVAPOTRANSPIRATION =           8453.33
           STREAMFLOW =        1662713.58             STREAMFLOW =          12291.06
     GW BOUNDARY FLOW =           5516.79       GW BOUNDARY FLOW =             35.34

   INFLOWS - OUTFLOWS =        2142999.20     INFLOWS - OUTFLOWS =        1222408.34
             --------                                   --------

 TOTAL STORAGE CHANGE =        2104331.73         STORAGE CHANGE =        1214787.67
       --------------                             --------------
         LAND SURFACE =        2352761.89           LAND SURFACE =         894135.85
            SOIL ZONE =        2261188.08              SOIL ZONE =         333296.37
     UNSATURATED ZONE =       -3175311.79       UNSATURATED ZONE =         -10273.81
       SATURATED ZONE =         665692.70         SATURATED ZONE =          -2370.76

 OVERALL BUDGET ERROR =          38667.47           BUDGET ERROR =           7620.68


  PERCENT DISCREPANCY =              0.62    PERCENT DISCREPANCY =              0.61



1
 SUMMARY VOLUMETRIC BUDGET FOR GSFLOW 
 DATE: 03 10 1991              CUMULATIVE TIME STEP:      10
 MODFLOW STRESS PERIOD      7     CURRENT TIME STEP:     161     ITERATIONS:       5

 -----------------------------------------------------------------------------------

   CUMULATIVE VOLUMES               L**3   RATES FOR THIS TIME STEP           L**3/T
   ------------------                      ------------------------

                                     IN                                         IN
                                     --                                         --
        PRECIPITATION =        8746030.42          PRECIPITATION =          32888.55
           STREAMFLOW =                               STREAMFLOW =                  
     GW BOUNDARY FLOW =             38.93       GW BOUNDARY FLOW =              0.89


                                    OUT                                        OUT
                                    ---                                        ---
   EVAPOTRANSPIRATION =        2482288.55     EVAPOTRANSPIRATION =           8863.51
           STREAMFLOW =        1848367.13             STREAMFLOW =          22058.99
     GW BOUNDARY FLOW =           5765.74       GW BOUNDARY FLOW =             35.45

   INFLOWS - OUTFLOWS =        4409647.93     INFLOWS - OUTFLOWS =           1931.49
             --------                                   --------

 TOTAL STORAGE CHANGE =        4356440.77         STORAGE CHANGE =           1647.96
       --------------                             --------------
         LAND SURFACE =        2523463.29           LAND SURFACE =         -14137.08
            SOIL ZONE =        4369007.61              SOIL ZONE =          18855.03
     UNSATURATED ZONE =       -3196257.80       UNSATURATED ZONE =          -1957.87
       SATURATED ZONE =         660226.61         SATURATED ZONE =          -1112.15

 OVERALL BUDGET ERROR =          53207.16           BUDGET ERROR =            283.53


  PERCENT DISCREPANCY =              0.61    PERCENT DISCREPANCY =              0.87



1
 SUMMARY VOLUMETRIC BUDGET FOR GSFLOW 
 DATE: 03 17 1991              CUMULATIVE TIME STEP:      17
 MODFLOW STRESS PERIOD      7     CURRENT TIME STEP:     168     ITERATIONS:       5

 -----------------------------------------------------------------------------------

   CUMULATIVE VOLUMES               L**3   RATES FOR THIS TIME STEP           L**3/T
   ------------------                      ------------------------

                                     IN                                         IN
                                     --                                         --
        PRECIPITATION =        9897129.71          PRECIPITATION =         157865.04
           STREAMFLOW =                               STREAMFLOW =                  
     GW BOUNDARY FLOW =             45.37       GW BOUNDARY FLOW =              0.95


                                    OUT                                        OUT
                                    ---                                        ---
   EVAPOTRANSPIRATION =        2510127.38     EVAPOTRANSPIRATION =           8079.77
           STREAMFLOW =        1989208.61             STREAMFLOW =          19558.33
     GW BOUNDARY FLOW =           6012.99       GW BOUNDARY FLOW =             35.25

   INFLOWS - OUTFLOWS =        5391826.11     INFLOWS - OUTFLOWS =         130192.64
             --------                                   --------

 TOTAL STORAGE CHANGE =        5338699.27         STORAGE CHANGE =         130237.29
       --------------                             --------------
         LAND SURFACE =        3672302.33           LAND SURFACE =         157496.61
            SOIL ZONE =        4229435.81              SOIL ZONE =         -22751.04
     UNSATURATED ZONE =       -3213532.23       UNSATURATED ZONE =          -2747.67
       SATURATED ZONE =         650492.09         SATURATED ZONE =          -1760.63

 OVERALL BUDGET ERROR =          53126.84           BUDGET ERROR =            -44.65


  PERCENT DISCREPANCY =              0.54    PERCENT DISCREPANCY =             -0.03



1
 SUMMARY VOLUMETRIC BUDGET FOR GSFLOW 
 DATE: 03 24 1991              CUMULATIVE TIME STEP:      24
 MODFLOW STRESS PERIOD      7     CURRENT TIME STEP:     175     ITERATIONS:       5

 -----------------------------------------------------------------------------------

   CUMULATIVE VOLUMES               L**3   RATES FOR THIS TIME STEP           L**3/T
   ------------------                      ------------------------

                                     IN                                         IN
                                     --                                         --
        PRECIPITATION =        1.1673D+07          PRECIPITATION =        1230031.83
           STREAMFLOW =                               STREAMFLOW =                  
     GW BOUNDARY FLOW =             52.22       GW BOUNDARY FLOW =              1.00


                                    OUT                                        OUT
                                    ---                                        ---
   EVAPOTRANSPIRATION =        2548953.67     EVAPOTRANSPIRATION =           4663.50
           STREAMFLOW =        2122301.67             STREAMFLOW =          18721.78
     GW BOUNDARY FLOW =           6259.04       GW BOUNDARY FLOW =             35.08

   INFLOWS - OUTFLOWS =        6995649.33     INFLOWS - OUTFLOWS =        1206612.47
             --------                                   --------

 TOTAL STORAGE CHANGE =        6942465.62         STORAGE CHANGE =        1206615.10
       --------------                             --------------
         LAND SURFACE =        5426161.24           LAND SURFACE =        1230031.83
            SOIL ZONE =        4116445.08              SOIL ZONE =         -17683.53
     UNSATURATED ZONE =       -3236410.78       UNSATURATED ZONE =          -3515.66
       SATURATED ZONE =         636268.61         SATURATED ZONE =          -2217.57

 OVERALL BUDGET ERROR =          53183.71           BUDGET ERROR =             -2.62


  PERCENT DISCREPANCY =              0.46    PERCENT DISCREPANCY =             -0.00



1
 SUMMARY VOLUMETRIC BUDGET FOR GSFLOW 
 DATE: 03 31 1991              CUMULATIVE TIME STEP:      31
 MODFLOW STRESS PERIOD      7     CURRENT TIME STEP:     182     ITERATIONS:       6

 -----------------------------------------------------------------------------------

   CUMULATIVE VOLUMES               L**3   RATES FOR THIS TIME STEP           L**3/T
   ------------------                      ------------------------

                                     IN                                         IN
                                     --                                         --
        PRECIPITATION =        1.2495D+07          PRECIPITATION =                  
           STREAMFLOW =                               STREAMFLOW =                  
     GW BOUNDARY FLOW =             59.46       GW BOUNDARY FLOW =              1.06


                                    OUT                                        OUT
                                    ---                                        ---
   EVAPOTRANSPIRATION =        2670718.14     EVAPOTRANSPIRATION =          48055.46
           STREAMFLOW =        2256596.83             STREAMFLOW =          22343.33
     GW BOUNDARY FLOW =           6504.14       GW BOUNDARY FLOW =             35.02

   INFLOWS - OUTFLOWS =        7561565.63     INFLOWS - OUTFLOWS =         -70432.76
             --------                                   --------

 TOTAL STORAGE CHANGE =        7507175.53         STORAGE CHANGE =         -71355.95
       --------------                             --------------
         LAND SURFACE =        5977198.28           LAND SURFACE =        -148137.48
            SOIL ZONE =        4171942.70              SOIL ZONE =          81779.21
     UNSATURATED ZONE =       -3260925.47       UNSATURATED ZONE =          -2494.44
       SATURATED ZONE =         618958.31         SATURATED ZONE =          -2503.27

 OVERALL BUDGET ERROR =          54390.11           BUDGET ERROR =            923.20


  PERCENT DISCREPANCY =              0.44    PERCENT DISCREPANCY =              1.30



1
 SUMMARY VOLUMETRIC BUDGET FOR GSFLOW 
 DATE: 04 07 1991              CUMULATIVE TIME STEP:       7
 MODFLOW STRESS PERIOD      8     CURRENT TIME STEP:     189     ITERATIONS:       7

 -----------------------------------------------------------------------------------

   CUMULATIVE VOLUMES               L**3   RATES FOR THIS TIME STEP           L**3/T
   ------------------                      ------------------------

                                     IN                                         IN
                                     --                                         --
        PRECIPITATION =        1.3018D+07          PRECIPITATION =                  
           STREAMFLOW =                               STREAMFLOW =                  
     GW BOUNDARY FLOW =             67.07       GW BOUNDARY FLOW =              1.11


                                    OUT                                        OUT
                                    ---                                        ---
   EVAPOTRANSPIRATION =        2978822.06     EVAPOTRANSPIRATION =          15960.30
           STREAMFLOW =        2577730.54             STREAMFLOW =          64306.63
     GW BOUNDARY FLOW =           6751.58       GW BOUNDARY FLOW =             35.61

   INFLOWS - OUTFLOWS =        7454499.63     INFLOWS - OUTFLOWS =         -80301.44
             --------                                   --------

 TOTAL STORAGE CHANGE =        7390889.42         STORAGE CHANGE =         -80817.56
       --------------                             --------------
         LAND SURFACE =        4335933.25           LAND SURFACE =         -73164.41
            SOIL ZONE =        5687126.06              SOIL ZONE =         -15186.24
     UNSATURATED ZONE =       -3237618.68       UNSATURATED ZONE =           9251.19
       SATURATED ZONE =         605446.85         SATURATED ZONE =          -1718.15

 OVERALL BUDGET ERROR =          63610.20           BUDGET ERROR =            516.13


  PERCENT DISCREPANCY =              0.49    PERCENT DISCREPANCY =              0.64



1
 SUMMARY VOLUMETRIC BUDGET FOR GSFLOW 
 DATE: 04 14 1991              CUMULATIVE TIME STEP:      14
 MODFLOW STRESS PERIOD      8     CURRENT TIME STEP:     196     ITERATIONS:       7

 -----------------------------------------------------------------------------------

   CUMULATIVE VOLUMES               L**3   RATES FOR THIS TIME STEP           L**3/T
   ------------------                      ------------------------

                                     IN                                         IN
                                     --                                         --
        PRECIPITATION =        1.3018D+07          PRECIPITATION =                  
           STREAMFLOW =                               STREAMFLOW =                  
     GW BOUNDARY FLOW =             74.99       GW BOUNDARY FLOW =              1.15


                                    OUT                                        OUT
                                    ---                                        ---
   EVAPOTRANSPIRATION =        3162937.48     EVAPOTRANSPIRATION =          42038.19
           STREAMFLOW =        3074181.22             STREAMFLOW =          75617.01
     GW BOUNDARY FLOW =           7000.92       GW BOUNDARY FLOW =             35.63

   INFLOWS - OUTFLOWS =        6773692.11     INFLOWS - OUTFLOWS =        -117689.68
             --------                                   --------

 TOTAL STORAGE CHANGE =        6706775.29         STORAGE CHANGE =        -118572.19
       --------------                             --------------
         LAND SURFACE =        3672284.12           LAND SURFACE =        -192335.10
            SOIL ZONE =        5616083.27              SOIL ZONE =          66842.83
     UNSATURATED ZONE =       -3175932.48       UNSATURATED ZONE =           8353.72
       SATURATED ZONE =         594338.12         SATURATED ZONE =          -1433.68

 OVERALL BUDGET ERROR =          66916.82           BUDGET ERROR =            882.51


  PERCENT DISCREPANCY =              0.52    PERCENT DISCREPANCY =              0.75



1
 SUMMARY VOLUMETRIC BUDGET FOR GSFLOW 
 DATE: 04 21 1991              CUMULATIVE TIME STEP:      21
 MODFLOW STRESS PERIOD      8     CURRENT TIME STEP:     203     ITERATIONS:       9

 -----------------------------------------------------------------------------------

   CUMULATIVE VOLUMES               L**3   RATES FOR THIS TIME STEP           L**3/T
   ------------------                      ------------------------

                                     IN                                         IN
                                     --                                         --
        PRECIPITATION =        1.3034D+07          PRECIPITATION =                  
           STREAMFLOW =                               STREAMFLOW =                  
     GW BOUNDARY FLOW =             83.22       GW BOUNDARY FLOW =              1.19


                                    OUT                                        OUT
                                    ---                                        ---
   EVAPOTRANSPIRATION =        3416578.34     EVAPOTRANSPIRATION =          46896.67
           STREAMFLOW =        3644401.83             STREAMFLOW =          93229.01
     GW BOUNDARY FLOW =           7250.47       GW BOUNDARY FLOW =             35.76

   INFLOWS - OUTFLOWS =        5965914.68     INFLOWS - OUTFLOWS =        -140160.24
             --------                                   --------

 TOTAL STORAGE CHANGE =        5894374.77         STORAGE CHANGE =        -140913.67
       --------------                             --------------
         LAND SURFACE =        2500870.93           LAND SURFACE =        -216968.59
            SOIL ZONE =        5920048.95              SOIL ZONE =          66486.84
     UNSATURATED ZONE =       -3112767.23       UNSATURATED ZONE =          10553.69
       SATURATED ZONE =         586219.48         SATURATED ZONE =           -985.65

 OVERALL BUDGET ERROR =          71539.91           BUDGET ERROR =            753.42


  PERCENT DISCREPANCY =              0.55    PERCENT DISCREPANCY =              0.54



1
 SUMMARY VOLUMETRIC BUDGET FOR GSFLOW 
 DATE: 04 28 1991              CUMULATIVE TIME STEP:      28
 MODFLOW STRESS PERIOD      8     CURRENT TIME STEP:     210     ITERATIONS:       6

 -----------------------------------------------------------------------------------

   CUMULATIVE VOLUMES               L**3   RATES FOR THIS TIME STEP           L**3/T
   ------------------                      ------------------------

                                     IN                                         IN
                                     --                                         --
        PRECIPITATION =        1.3303D+07          PRECIPITATION =                  
           STREAMFLOW =                               STREAMFLOW =                  
     GW BOUNDARY FLOW =             91.71       GW BOUNDARY FLOW =              1.23


                                    OUT                                        OUT
                                    ---                                        ---
   EVAPOTRANSPIRATION =        3685006.09     EVAPOTRANSPIRATION =          58233.50
           STREAMFLOW =        4312038.51             STREAMFLOW =          94788.81
     GW BOUNDARY FLOW =           7500.58       GW BOUNDARY FLOW =             35.68

   INFLOWS - OUTFLOWS =        5298977.03     INFLOWS - OUTFLOWS =        -153056.76
             --------                                   --------

 TOTAL STORAGE CHANGE =        5223756.88         STORAGE CHANGE =        -153311.20
       --------------                             --------------
         LAND SURFACE =        1748447.62           LAND SURFACE =        -137153.52
            SOIL ZONE =        5929328.31              SOIL ZONE =         -25942.58
     UNSATURATED ZONE =       -3037838.69       UNSATURATED ZONE =          10297.68
       SATURATED ZONE =         583816.62         SATURATED ZONE =           -512.83

 OVERALL BUDGET ERROR =          75220.15           BUDGET ERROR =            254.43


  PERCENT DISCREPANCY =              0.57    PERCENT DISCREPANCY =              0.17



1
 SUMMARY VOLUMETRIC BUDGET FOR GSFLOW 
 DATE: 05 05 1991              CUMULATIVE TIME STEP:       5
 MODFLOW STRESS PERIOD      9     CURRENT TIME STEP:     217     ITERATIONS:     109

 -----------------------------------------------------------------------------------

   CUMULATIVE VOLUMES               L**3   RATES FOR THIS TIME STEP           L**3/T
   ------------------                      ------------------------

                                     IN                                         IN
                                     --                                         --
        PRECIPITATION =        1.3510D+07          PRECIPITATION =                  
           STREAMFLOW =                               STREAMFLOW =                  
     GW BOUNDARY FLOW =            100.47       GW BOUNDARY FLOW =              1.27


                                    OUT                                        OUT
                                    ---                                        ---
   EVAPOTRANSPIRATION =        4062542.84     EVAPOTRANSPIRATION =          90413.56
           STREAMFLOW =        4918011.55             STREAMFLOW =          86257.66
     GW BOUNDARY FLOW =           7749.20       GW BOUNDARY FLOW =             35.45

   INFLOWS - OUTFLOWS =        4521505.01     INFLOWS - OUTFLOWS =        -176705.39
             --------                                   --------

 TOTAL STORAGE CHANGE =        4444803.16         STORAGE CHANGE =        -176798.16
       --------------                             --------------
         LAND SURFACE =        1036420.07           LAND SURFACE =        -150153.36
            SOIL ZONE =        5800739.49              SOIL ZONE =         -36027.03
     UNSATURATED ZONE =       -2972596.50       UNSATURATED ZONE =           8085.40
       SATURATED ZONE =         580236.66         SATURATED ZONE =           1296.76

 OVERALL BUDGET ERROR =          76701.85           BUDGET ERROR =             92.77


  PERCENT DISCREPANCY =              0.57    PERCENT DISCREPANCY =              0.05



1
 SUMMARY VOLUMETRIC BUDGET FOR GSFLOW 
 DATE: 05 12 1991              CUMULATIVE TIME STEP:      12
 MODFLOW STRESS PERIOD      9     CURRENT TIME STEP:     224     ITERATIONS:       7

 -----------------------------------------------------------------------------------

   CUMULATIVE VOLUMES               L**3   RATES FOR THIS TIME STEP           L**3/T
   ------------------                      ------------------------

                                     IN                                         IN
                                     --                                         --
        PRECIPITATION =        1.4029D+07          PRECIPITATION =                  
           STREAMFLOW =                               STREAMFLOW =                  
     GW BOUNDARY FLOW =            109.49       GW BOUNDARY FLOW =              1.31


                                    OUT                                        OUT
                                    ---                                        ---
   EVAPOTRANSPIRATION =        4458166.95     EVAPOTRANSPIRATION =          68953.88
           STREAMFLOW =        5481738.70             STREAMFLOW =          83800.00
     GW BOUNDARY FLOW =           7996.08       GW BOUNDARY FLOW =             35.23

   INFLOWS - OUTFLOWS =        4081429.91     INFLOWS - OUTFLOWS =        -152787.81
             --------                                   --------

 TOTAL STORAGE CHANGE =        4002779.96         STORAGE CHANGE =        -152669.72
       --------------                             --------------
         LAND SURFACE =         579124.41           LAND SURFACE =        -205427.92
            SOIL ZONE =        5760490.37              SOIL ZONE =          45115.55
     UNSATURATED ZONE =       -2911213.50       UNSATURATED ZONE =           8613.51
       SATURATED ZONE =         574374.79         SATURATED ZONE =           -970.91

 OVERALL BUDGET ERROR =          78649.94           BUDGET ERROR =           -118.09


  PERCENT DISCREPANCY =              0.56    PERCENT DISCREPANCY =             -0.08



1
 SUMMARY VOLUMETRIC BUDGET FOR GSFLOW 
 DATE: 05 19 1991              CUMULATIVE TIME STEP:      19
 MODFLOW STRESS PERIOD      9     CURRENT TIME STEP:     231     ITERATIONS:       9

 -----------------------------------------------------------------------------------

   CUMULATIVE VOLUMES               L**3   RATES FOR THIS TIME STEP           L**3/T
   ------------------                      ------------------------

                                     IN                                         IN
                                     --                                         --
        PRECIPITATION =        1.4365D+07          PRECIPITATION =                  
           STREAMFLOW =                               STREAMFLOW =                  
     GW BOUNDARY FLOW =            118.78       GW BOUNDARY FLOW =              1.34


                                    OUT                                        OUT
                                    ---                                        ---
   EVAPOTRANSPIRATION =        4896842.11     EVAPOTRANSPIRATION =          20444.02
           STREAMFLOW =        5971946.27             STREAMFLOW =          62095.11
     GW BOUNDARY FLOW =           8240.78       GW BOUNDARY FLOW =             34.77

   INFLOWS - OUTFLOWS =        3488467.93     INFLOWS - OUTFLOWS =         -82572.55
             --------                                   --------

 TOTAL STORAGE CHANGE =        3408764.64         STORAGE CHANGE =         -82544.25
       --------------                             --------------
         LAND SURFACE =         228252.15           LAND SURFACE =         -22354.64
            SOIL ZONE =        5477512.65              SOIL ZONE =         -64488.52
     UNSATURATED ZONE =       -2864302.15       UNSATURATED ZONE =           5333.48
       SATURATED ZONE =         567297.62         SATURATED ZONE =          -1034.64

 OVERALL BUDGET ERROR =          79703.29           BUDGET ERROR =            -28.30


  PERCENT DISCREPANCY =              0.56    PERCENT DISCREPANCY =             -0.03



1
 SUMMARY VOLUMETRIC BUDGET FOR GSFLOW 
 DATE: 05 26 1991              CUMULATIVE TIME STEP:      26
 MODFLOW STRESS PERIOD      9     CURRENT TIME STEP:     238     ITERATIONS:       8

 -----------------------------------------------------------------------------------

   CUMULATIVE VOLUMES               L**3   RATES FOR THIS TIME STEP           L**3/T
   ------------------                      ------------------------

                                     IN                                         IN
                                     --                                         --
        PRECIPITATION =        1.4426D+07          PRECIPITATION =                  
           STREAMFLOW =                               STREAMFLOW =                  
     GW BOUNDARY FLOW =            128.35       GW BOUNDARY FLOW =              1.39


                                    OUT                                        OUT
                                    ---                                        ---
   EVAPOTRANSPIRATION =        5581487.33     EVAPOTRANSPIRATION =          76900.78
           STREAMFLOW =        6324054.17             STREAMFLOW =          37138.80
     GW BOUNDARY FLOW =           8482.28       GW BOUNDARY FLOW =             34.21

   INFLOWS - OUTFLOWS =        2512602.18     INFLOWS - OUTFLOWS =        -114072.41
             --------                                   --------

 TOTAL STORAGE CHANGE =        2432886.58         STORAGE CHANGE =        -114185.55
       --------------                             --------------
         LAND SURFACE =          55233.90           LAND SURFACE =          -8157.37
            SOIL ZONE =        4665522.36              SOIL ZONE =        -103907.37
     UNSATURATED ZONE =       -2845353.92       UNSATURATED ZONE =           -328.41
       SATURATED ZONE =         557479.38         SATURATED ZONE =          -1792.47

 OVERALL BUDGET ERROR =          79715.60           BUDGET ERROR =            113.14


  PERCENT DISCREPANCY =              0.55    PERCENT DISCREPANCY =              0.10



1
 SUMMARY VOLUMETRIC BUDGET FOR GSFLOW 
 DATE: 06 02 1991              CUMULATIVE TIME STEP:       2
 MODFLOW STRESS PERIOD     10     CURRENT TIME STEP:     245     ITERATIONS:       8

 -----------------------------------------------------------------------------------

   CUMULATIVE VOLUMES               L**3   RATES FOR THIS TIME STEP           L**3/T
   ------------------                      ------------------------

                                     IN                                         IN
                                     --                                         --
        PRECIPITATION =        1.4671D+07          PRECIPITATION =                  
           STREAMFLOW =                               STREAMFLOW =                  
     GW BOUNDARY FLOW =            138.22       GW BOUNDARY FLOW =              1.43


                                    OUT                                        OUT
                                    ---                                        ---
   EVAPOTRANSPIRATION =        6170671.40     EVAPOTRANSPIRATION =         127566.24
           STREAMFLOW =        6549638.06             STREAMFLOW =          28168.43
     GW BOUNDARY FLOW =           8720.48       GW BOUNDARY FLOW =             33.88

   INFLOWS - OUTFLOWS =        1942083.08     INFLOWS - OUTFLOWS =        -155767.13
             --------                                   --------

 TOTAL STORAGE CHANGE =        1862767.59         STORAGE CHANGE =        -155565.42
       --------------                             --------------
         LAND SURFACE =          19760.70           LAND SURFACE =          -4094.13
            SOIL ZONE =        4160830.24              SOIL ZONE =        -145896.80
     UNSATURATED ZONE =       -2859780.42       UNSATURATED ZONE =          -3048.14
       SATURATED ZONE =         541951.70         SATURATED ZONE =          -2526.42

 OVERALL BUDGET ERROR =          79315.50           BUDGET ERROR =           -201.71


  PERCENT DISCREPANCY =              0.54    PERCENT DISCREPANCY =             -0.13



1
 SUMMARY VOLUMETRIC BUDGET FOR GSFLOW 
 DATE: 06 09 1991              CUMULATIVE TIME STEP:       9
 MODFLOW STRESS PERIOD     10     CURRENT TIME STEP:     252     ITERATIONS:       7

 -----------------------------------------------------------------------------------

   CUMULATIVE VOLUMES               L**3   RATES FOR THIS TIME STEP           L**3/T
   ------------------                      ------------------------

                                     IN                                         IN
                                     --                                         --
        PRECIPITATION =        1.4671D+07          PRECIPITATION =                  
           STREAMFLOW =                               STREAMFLOW =                  
     GW BOUNDARY FLOW =            148.38       GW BOUNDARY FLOW =              1.47


                                    OUT                                        OUT
                                    ---                                        ---
   EVAPOTRANSPIRATION =        6959150.92     EVAPOTRANSPIRATION =         172470.54
           STREAMFLOW =        6706680.28             STREAMFLOW =          18903.38
     GW BOUNDARY FLOW =           8956.18       GW BOUNDARY FLOW =             33.53

   INFLOWS - OUTFLOWS =         996335.81     INFLOWS - OUTFLOWS =        -191405.98
             --------                                   --------

 TOTAL STORAGE CHANGE =         918878.05         STORAGE CHANGE =        -190657.74
       --------------                             --------------
         LAND SURFACE =           3957.39           LAND SURFACE =          -2186.13
            SOIL ZONE =        3289601.40              SOIL ZONE =        -178783.03
     UNSATURATED ZONE =       -2895190.92       UNSATURATED ZONE =          -6135.73
       SATURATED ZONE =         520504.28         SATURATED ZONE =          -3552.93

 OVERALL BUDGET ERROR =          77457.77           BUDGET ERROR =           -748.24


  PERCENT DISCREPANCY =              0.53    PERCENT DISCREPANCY =             -0.39



1
 SUMMARY VOLUMETRIC BUDGET FOR GSFLOW 
 DATE: 06 16 1991              CUMULATIVE TIME STEP:      16
 MODFLOW STRESS PERIOD     10     CURRENT TIME STEP:     259     ITERATIONS:       6

 -----------------------------------------------------------------------------------

   CUMULATIVE VOLUMES               L**3   RATES FOR THIS TIME STEP           L**3/T
   ------------------                      ------------------------

                                     IN                                         IN
                                     --                                         --
        PRECIPITATION =        1.4671D+07          PRECIPITATION =                  
           STREAMFLOW =                               STREAMFLOW =                  
     GW BOUNDARY FLOW =            158.86       GW BOUNDARY FLOW =              1.52


                                    OUT                                        OUT
                                    ---                                        ---
   EVAPOTRANSPIRATION =        7975770.24     EVAPOTRANSPIRATION =         117011.31
           STREAMFLOW =        6808545.16             STREAMFLOW =          12649.40
     GW BOUNDARY FLOW =           9188.34       GW BOUNDARY FLOW =             33.05

   INFLOWS - OUTFLOWS =        -122370.07     INFLOWS - OUTFLOWS =        -129692.24
             --------                                   --------

 TOTAL STORAGE CHANGE =        -194376.72         STORAGE CHANGE =        -128906.46
       --------------                             --------------
         LAND SURFACE =            106.65           LAND SURFACE =            -66.98
            SOIL ZONE =        2293371.78              SOIL ZONE =        -107755.04
     UNSATURATED ZONE =       -2977784.67       UNSATURATED ZONE =         -15849.31
       SATURATED ZONE =         489923.08         SATURATED ZONE =          -5235.22

 OVERALL BUDGET ERROR =          72006.65           BUDGET ERROR =           -785.77


  PERCENT DISCREPANCY =              0.49    PERCENT DISCREPANCY =             -0.61



1
 SUMMARY VOLUMETRIC BUDGET FOR GSFLOW 
 DATE: 06 23 1991              CUMULATIVE TIME STEP:      23
 MODFLOW STRESS PERIOD     10     CURRENT TIME STEP:     266     ITERATIONS:       7

 -----------------------------------------------------------------------------------

   CUMULATIVE VOLUMES               L**3   RATES FOR THIS TIME STEP           L**3/T
   ------------------                      ------------------------

                                     IN                                         IN
                                     --                                         --
        PRECIPITATION =        1.4671D+07          PRECIPITATION =                  
           STREAMFLOW =                               STREAMFLOW =                  
     GW BOUNDARY FLOW =            169.64       GW BOUNDARY FLOW =              1.56


                                    OUT                                        OUT
                                    ---                                        ---
   EVAPOTRANSPIRATION =        8518294.92     EVAPOTRANSPIRATION =          38765.97
           STREAMFLOW =        6890566.46             STREAMFLOW =          11951.79
     GW BOUNDARY FLOW =           9419.00       GW BOUNDARY FLOW =             32.93

   INFLOWS - OUTFLOWS =        -747135.94     INFLOWS - OUTFLOWS =         -50749.13
             --------                                   --------

 TOTAL STORAGE CHANGE =        -815082.82         STORAGE CHANGE =         -50478.74
       --------------                             --------------
         LAND SURFACE =             16.57           LAND SURFACE =             -3.65
            SOIL ZONE =        1826672.72              SOIL ZONE =         -31388.18
     UNSATURATED ZONE =       -3088646.16       UNSATURATED ZONE =         -12832.47
       SATURATED ZONE =         446867.05         SATURATED ZONE =          -6254.53

 OVERALL BUDGET ERROR =          67946.88           BUDGET ERROR =           -270.38


  PERCENT DISCREPANCY =              0.44    PERCENT DISCREPANCY =             -0.53



1
 SUMMARY VOLUMETRIC BUDGET FOR GSFLOW 
 DATE: 06 30 1991              CUMULATIVE TIME STEP:      30
 MODFLOW STRESS PERIOD     10     CURRENT TIME STEP:     273     ITERATIONS:       8

 -----------------------------------------------------------------------------------

   CUMULATIVE VOLUMES               L**3   RATES FOR THIS TIME STEP           L**3/T
   ------------------                      ------------------------

                                     IN                                         IN
[...]
   ------------------                      ------------------------

                                     IN                                         IN
                                     --                                         --
        PRECIPITATION =        1.3351D+08          PRECIPITATION =                  
           STREAMFLOW =                               STREAMFLOW =                  
     GW BOUNDARY FLOW =           5625.73       GW BOUNDARY FLOW =              3.53


                                    OUT                                        OUT
                                    ---                                        ---
   EVAPOTRANSPIRATION =        7.3401D+07     EVAPOTRANSPIRATION =          63211.01
           STREAMFLOW =        7.1984D+07             STREAMFLOW =           6660.61
     GW BOUNDARY FLOW =          51122.91       GW BOUNDARY FLOW =             24.00

   INFLOWS - OUTFLOWS =       -1.1922D+07     INFLOWS - OUTFLOWS =         -69892.09
             --------                                   --------

 TOTAL STORAGE CHANGE =       -1.2346D+07         STORAGE CHANGE =         -69861.20
       --------------                             --------------
         LAND SURFACE =         114525.51           LAND SURFACE =          -7766.54
            SOIL ZONE =        1049031.85              SOIL ZONE =         -43569.98
     UNSATURATED ZONE =         -93474.22       UNSATURATED ZONE =         -10596.14
       SATURATED ZONE =       -1.3416D+07         SATURATED ZONE =          -7929.22

 OVERALL BUDGET ERROR =         423314.12           BUDGET ERROR =            -30.89


  PERCENT DISCREPANCY =              0.29    PERCENT DISCREPANCY =             -0.04



1
 SUMMARY VOLUMETRIC BUDGET FOR GSFLOW 
 DATE: 09 10 1995              CUMULATIVE TIME STEP:      10
 MODFLOW STRESS PERIOD     61     CURRENT TIME STEP:    1806     ITERATIONS:       7

 -----------------------------------------------------------------------------------

   CUMULATIVE VOLUMES               L**3   RATES FOR THIS TIME STEP           L**3/T
   ------------------                      ------------------------

                                     IN                                         IN
                                     --                                         --
        PRECIPITATION =        1.3351D+08          PRECIPITATION =                  
           STREAMFLOW =                               STREAMFLOW =                  
     GW BOUNDARY FLOW =           5650.80       GW BOUNDARY FLOW =              3.62


                                    OUT                                        OUT
                                    ---                                        ---
   EVAPOTRANSPIRATION =        7.3755D+07     EVAPOTRANSPIRATION =          47309.27
           STREAMFLOW =        7.2032D+07             STREAMFLOW =           6697.04
     GW BOUNDARY FLOW =          51291.06       GW BOUNDARY FLOW =             24.01

   INFLOWS - OUTFLOWS =       -1.2324D+07     INFLOWS - OUTFLOWS =         -54026.69
             --------                                   --------

 TOTAL STORAGE CHANGE =       -1.2747D+07         STORAGE CHANGE =         -54003.38
       --------------                             --------------
         LAND SURFACE =          75925.34           LAND SURFACE =          -4673.87
            SOIL ZONE =         809020.52              SOIL ZONE =         -31430.93
     UNSATURATED ZONE =        -165480.27       UNSATURATED ZONE =         -10360.79
       SATURATED ZONE =       -1.3467D+07         SATURATED ZONE =          -7538.46

 OVERALL BUDGET ERROR =         423170.41           BUDGET ERROR =            -23.32


  PERCENT DISCREPANCY =              0.29    PERCENT DISCREPANCY =             -0.04



1
 SUMMARY VOLUMETRIC BUDGET FOR GSFLOW 
 DATE: 09 17 1995              CUMULATIVE TIME STEP:      17
 MODFLOW STRESS PERIOD     61     CURRENT TIME STEP:    1813     ITERATIONS:       7

 -----------------------------------------------------------------------------------

   CUMULATIVE VOLUMES               L**3   RATES FOR THIS TIME STEP           L**3/T
   ------------------                      ------------------------

                                     IN                                         IN
                                     --                                         --
        PRECIPITATION =        1.3351D+08          PRECIPITATION =                  
           STREAMFLOW =                               STREAMFLOW =                  
     GW BOUNDARY FLOW =           5676.50       GW BOUNDARY FLOW =              3.71


                                    OUT                                        OUT
                                    ---                                        ---
   EVAPOTRANSPIRATION =        7.4136D+07     EVAPOTRANSPIRATION =          43156.27
           STREAMFLOW =        7.2072D+07             STREAMFLOW =           5872.00
     GW BOUNDARY FLOW =          51458.41       GW BOUNDARY FLOW =             23.93

   INFLOWS - OUTFLOWS =       -1.2745D+07     INFLOWS - OUTFLOWS =         -49048.49
             --------                                   --------

 TOTAL STORAGE CHANGE =       -1.3168D+07         STORAGE CHANGE =         -49025.82
       --------------                             --------------
         LAND SURFACE =          44186.54           LAND SURFACE =          -3043.17
            SOIL ZONE =         564809.32              SOIL ZONE =         -26440.76
     UNSATURATED ZONE =        -241967.49       UNSATURATED ZONE =         -10706.85
       SATURATED ZONE =       -1.3536D+07         SATURATED ZONE =          -8835.71

 OVERALL BUDGET ERROR =         422962.64           BUDGET ERROR =            -22.67


  PERCENT DISCREPANCY =              0.29    PERCENT DISCREPANCY =             -0.05



1
 SUMMARY VOLUMETRIC BUDGET FOR GSFLOW 
 DATE: 09 24 1995              CUMULATIVE TIME STEP:      24
 MODFLOW STRESS PERIOD     61     CURRENT TIME STEP:    1820     ITERATIONS:       6

 -----------------------------------------------------------------------------------

   CUMULATIVE VOLUMES               L**3   RATES FOR THIS TIME STEP           L**3/T
   ------------------                      ------------------------

                                     IN                                         IN
                                     --                                         --
        PRECIPITATION =        1.3351D+08          PRECIPITATION =                  
           STREAMFLOW =                               STREAMFLOW =                  
     GW BOUNDARY FLOW =           5702.80       GW BOUNDARY FLOW =              3.79


                                    OUT                                        OUT
                                    ---                                        ---
   EVAPOTRANSPIRATION =        7.4402D+07     EVAPOTRANSPIRATION =          27444.04
           STREAMFLOW =        7.2114D+07             STREAMFLOW =           6511.26
     GW BOUNDARY FLOW =          51625.88       GW BOUNDARY FLOW =             23.97

   INFLOWS - OUTFLOWS =       -1.3053D+07     INFLOWS - OUTFLOWS =         -33975.49
             --------                                   --------

 TOTAL STORAGE CHANGE =       -1.3476D+07         STORAGE CHANGE =         -33963.42
       --------------                             --------------
         LAND SURFACE =          28055.76           LAND SURFACE =          -1559.79
            SOIL ZONE =         409290.31              SOIL ZONE =         -15434.88
     UNSATURATED ZONE =        -314100.18       UNSATURATED ZONE =          -9212.99
       SATURATED ZONE =       -1.3599D+07         SATURATED ZONE =          -7756.43

 OVERALL BUDGET ERROR =         422816.40           BUDGET ERROR =            -12.07


  PERCENT DISCREPANCY =              0.29    PERCENT DISCREPANCY =             -0.04



1
 SUMMARY VOLUMETRIC BUDGET FOR GSFLOW 
 DATE: 10 01 1995              CUMULATIVE TIME STEP:       1
 MODFLOW STRESS PERIOD     62     CURRENT TIME STEP:    1827     ITERATIONS:       6

 -----------------------------------------------------------------------------------

   CUMULATIVE VOLUMES               L**3   RATES FOR THIS TIME STEP           L**3/T
   ------------------                      ------------------------

                                     IN                                         IN
                                     --                                         --
        PRECIPITATION =        1.3351D+08          PRECIPITATION =                  
           STREAMFLOW =                               STREAMFLOW =                  
     GW BOUNDARY FLOW =           5729.68       GW BOUNDARY FLOW =              3.87


                                    OUT                                        OUT
                                    ---                                        ---
   EVAPOTRANSPIRATION =        7.4517D+07     EVAPOTRANSPIRATION =          16768.03
           STREAMFLOW =        7.2166D+07             STREAMFLOW =           7499.27
     GW BOUNDARY FLOW =          51794.26       GW BOUNDARY FLOW =             24.06

   INFLOWS - OUTFLOWS =       -1.3221D+07     INFLOWS - OUTFLOWS =         -24287.48
             --------                                   --------

 TOTAL STORAGE CHANGE =       -1.3644D+07         STORAGE CHANGE =         -24282.20
       --------------                             --------------
         LAND SURFACE =          22241.69           LAND SURFACE =           -699.89
            SOIL ZONE =         346656.74              SOIL ZONE =          -9153.79
     UNSATURATED ZONE =        -371840.16       UNSATURATED ZONE =          -8082.53
       SATURATED ZONE =       -1.3641D+07         SATURATED ZONE =          -6346.67

 OVERALL BUDGET ERROR =         422772.13           BUDGET ERROR =             -5.28


  PERCENT DISCREPANCY =              0.29    PERCENT DISCREPANCY =             -0.02



1
 SUMMARY VOLUMETRIC BUDGET FOR GSFLOW 
 DATE: 10 08 1995              CUMULATIVE TIME STEP:       8
 MODFLOW STRESS PERIOD     62     CURRENT TIME STEP:    1834     ITERATIONS:       6

 -----------------------------------------------------------------------------------

   CUMULATIVE VOLUMES               L**3   RATES FOR THIS TIME STEP           L**3/T
   ------------------                      ------------------------

                                     IN                                         IN
                                     --                                         --
        PRECIPITATION =        1.3351D+08          PRECIPITATION =                  
           STREAMFLOW =                               STREAMFLOW =                  
     GW BOUNDARY FLOW =           5757.10       GW BOUNDARY FLOW =              3.95


                                    OUT                                        OUT
                                    ---                                        ---
   EVAPOTRANSPIRATION =        7.4640D+07     EVAPOTRANSPIRATION =          15498.48
           STREAMFLOW =        7.2217D+07             STREAMFLOW =           7404.83
     GW BOUNDARY FLOW =          51962.58       GW BOUNDARY FLOW =             24.06

   INFLOWS - OUTFLOWS =       -1.3395D+07     INFLOWS - OUTFLOWS =         -22923.42
             --------                                   --------

 TOTAL STORAGE CHANGE =       -1.3818D+07         STORAGE CHANGE =         -22917.39
       --------------                             --------------
         LAND SURFACE =          18179.45           LAND SURFACE =           -628.45
            SOIL ZONE =         279475.58              SOIL ZONE =          -8135.89
     UNSATURATED ZONE =        -426510.14       UNSATURATED ZONE =          -7447.20
       SATURATED ZONE =       -1.3690D+07         SATURATED ZONE =          -6706.52

 OVERALL BUDGET ERROR =         422715.05           BUDGET ERROR =             -6.03


  PERCENT DISCREPANCY =              0.29    PERCENT DISCREPANCY =             -0.03



1
 SUMMARY VOLUMETRIC BUDGET FOR GSFLOW 
 DATE: 10 15 1995              CUMULATIVE TIME STEP:      15
 MODFLOW STRESS PERIOD     62     CURRENT TIME STEP:    1841     ITERATIONS:       5

 -----------------------------------------------------------------------------------

   CUMULATIVE VOLUMES               L**3   RATES FOR THIS TIME STEP           L**3/T
   ------------------                      ------------------------

                                     IN                                         IN
                                     --                                         --
        PRECIPITATION =        1.3351D+08          PRECIPITATION =                  
           STREAMFLOW =                               STREAMFLOW =                  
     GW BOUNDARY FLOW =           5785.01       GW BOUNDARY FLOW =              4.02


                                    OUT                                        OUT
                                    ---                                        ---
   EVAPOTRANSPIRATION =        7.4757D+07     EVAPOTRANSPIRATION =          18091.11
           STREAMFLOW =        7.2267D+07             STREAMFLOW =           6989.41
     GW BOUNDARY FLOW =          52130.88       GW BOUNDARY FLOW =             24.03

   INFLOWS - OUTFLOWS =       -1.3562D+07     INFLOWS - OUTFLOWS =         -25100.54
             --------                                   --------

 TOTAL STORAGE CHANGE =       -1.3984D+07         STORAGE CHANGE =         -25092.19
       --------------                             --------------
         LAND SURFACE =          14037.98           LAND SURFACE =           -696.58
            SOIL ZONE =         218937.52              SOIL ZONE =          -9198.74
     UNSATURATED ZONE =        -476373.28       UNSATURATED ZONE =          -6946.77
       SATURATED ZONE =       -1.3742D+07         SATURATED ZONE =          -8250.76

 OVERALL BUDGET ERROR =         422650.37           BUDGET ERROR =             -8.35


  PERCENT DISCREPANCY =              0.29    PERCENT DISCREPANCY =             -0.03



1
 SUMMARY VOLUMETRIC BUDGET FOR GSFLOW 
 DATE: 10 22 1995              CUMULATIVE TIME STEP:      22
 MODFLOW STRESS PERIOD     62     CURRENT TIME STEP:    1848     ITERATIONS:       7

 -----------------------------------------------------------------------------------

   CUMULATIVE VOLUMES               L**3   RATES FOR THIS TIME STEP           L**3/T
   ------------------                      ------------------------

                                     IN                                         IN
                                     --                                         --
        PRECIPITATION =        1.3351D+08          PRECIPITATION =                  
           STREAMFLOW =                               STREAMFLOW =                  
     GW BOUNDARY FLOW =           5813.38       GW BOUNDARY FLOW =              4.08


                                    OUT                                        OUT
                                    ---                                        ---
   EVAPOTRANSPIRATION =        7.4860D+07     EVAPOTRANSPIRATION =           4706.15
           STREAMFLOW =        7.2318D+07             STREAMFLOW =           8152.99
     GW BOUNDARY FLOW =          52299.20       GW BOUNDARY FLOW =             24.14

   INFLOWS - OUTFLOWS =       -1.3716D+07     INFLOWS - OUTFLOWS =         -12879.20
             --------                                   --------

 TOTAL STORAGE CHANGE =       -1.4138D+07         STORAGE CHANGE =         -12879.89
       --------------                             --------------
         LAND SURFACE =          10452.80           LAND SURFACE =             -6.45
            SOIL ZONE =         168070.28              SOIL ZONE =          -2048.70
     UNSATURATED ZONE =        -522984.79       UNSATURATED ZONE =          -6183.38
       SATURATED ZONE =       -1.3794D+07         SATURATED ZONE =          -4642.04

 OVERALL BUDGET ERROR =         422597.39           BUDGET ERROR =              0.69


  PERCENT DISCREPANCY =              0.29    PERCENT DISCREPANCY =              0.01



1
 SUMMARY VOLUMETRIC BUDGET FOR GSFLOW 
 DATE: 10 29 1995              CUMULATIVE TIME STEP:      29
 MODFLOW STRESS PERIOD     62     CURRENT TIME STEP:    1855     ITERATIONS:      14

 -----------------------------------------------------------------------------------

   CUMULATIVE VOLUMES               L**3   RATES FOR THIS TIME STEP           L**3/T
   ------------------                      ------------------------

                                     IN                                         IN
                                     --                                         --
        PRECIPITATION =        1.3351D+08          PRECIPITATION =                  
           STREAMFLOW =                               STREAMFLOW =                  
     GW BOUNDARY FLOW =           5842.17       GW BOUNDARY FLOW =              4.14


                                    OUT                                        OUT
                                    ---                                        ---
   EVAPOTRANSPIRATION =        7.4926D+07     EVAPOTRANSPIRATION =          11340.07
           STREAMFLOW =        7.2372D+07             STREAMFLOW =           7495.26
     GW BOUNDARY FLOW =          52467.95       GW BOUNDARY FLOW =             24.09

   INFLOWS - OUTFLOWS =       -1.3836D+07     INFLOWS - OUTFLOWS =         -18855.27
             --------                                   --------

 TOTAL STORAGE CHANGE =       -1.4259D+07         STORAGE CHANGE =         -18848.81
       --------------                             --------------
         LAND SURFACE =           9254.99           LAND SURFACE =           -359.13
            SOIL ZONE =         138097.32              SOIL ZONE =          -5038.69
     UNSATURATED ZONE =        -567223.99       UNSATURATED ZONE =          -6247.36
       SATURATED ZONE =       -1.3839D+07         SATURATED ZONE =          -7204.30

 OVERALL BUDGET ERROR =         422570.54           BUDGET ERROR =             -6.46


  PERCENT DISCREPANCY =              0.29    PERCENT DISCREPANCY =             -0.03



 Number of time steps:   1857;  Number of non-convergence:   0
 MF iterations:         11913;  SZ iterations:           11854
 Average MF iterations:  6.42;  Average SZ iterations:    6.38
 Maximum MF iterations:   109;  Maximum SZ iterations:      50

mxsziter reached: 1

MF iteration distribution:      0    0   27  199  323  459  482  253   78   19
                                2    2    3    2    1    2    1    0    0    0
                                0    0    0    1    0    0    0    0    1    0
                                0    0    0    0    0    0    0    1    0    0
                                0    0    0    0    0    0    0    0    0    0
                                0    0    0    0    0    0    0    0    0    0
                                0    0    0    0    0    0    0    0    0    0
                                0    0    0    0    0    0    0    0    0    1

SZ computation distribution:    0    0   27  199  323  459  482  253   78   19
                                2    2    3    2    1    2    1    0    0    0
                                0    0    0    1    0    0    0    0    1    0
                                0    0    0    0    0    0    0    1    0    0
                                0    0    0    0    0    0    0    0    0    1
                                0    0    0    0    0    0    0    0    0    0
                                0    0    0    0    0    0    0    0    0    0
                                0    0    0    0    0    0    0    0    0    0

