1
 SUMMARY VOLUMETRIC BUDGET FOR GSFLOW 
 DATE: 10 07 1990              CUMULATIVE TIME STEP:       7
 MODFLOW STRESS PERIOD      2     CURRENT TIME STEP:       7     ITERATIONS:       7

 -----------------------------------------------------------------------------------

   CUMULATIVE VOLUMES               L**3   RATES FOR THIS TIME STEP           L**3/T
   ------------------                      ------------------------

                                     IN                                         IN
                                     --                                         --
        PRECIPITATION =                            PRECIPITATION =                  
           STREAMFLOW =                               STREAMFLOW =                  
     GW BOUNDARY FLOW =                         GW BOUNDARY FLOW =                  


                                    OUT                                        OUT
                                    ---                                        ---
   EVAPOTRANSPIRATION =         385031.63     EVAPOTRANSPIRATION =          11801.34
           STREAMFLOW =          45661.62             STREAMFLOW =           8128.74
     GW BOUNDARY FLOW =            252.78       GW BOUNDARY FLOW =             36.30

   INFLOWS - OUTFLOWS =        -430946.02     INFLOWS - OUTFLOWS =         -19966.38
             --------                                   --------

 TOTAL STORAGE CHANGE =        -429349.30         STORAGE CHANGE =         -19938.27
       --------------                             --------------
         LAND SURFACE =                             LAND SURFACE =                  
            SOIL ZONE =         -33378.23              SOIL ZONE =           -943.72
     UNSATURATED ZONE =        -502794.45       UNSATURATED ZONE =         -33592.86
       SATURATED ZONE =         106823.38         SATURATED ZONE =          14598.31

 OVERALL BUDGET ERROR =          -1596.73           BUDGET ERROR =            -28.11


  PERCENT DISCREPANCY =             -0.37    PERCENT DISCREPANCY =             -0.14



1
 SUMMARY VOLUMETRIC BUDGET FOR GSFLOW 
 DATE: 10 14 1990              CUMULATIVE TIME STEP:      14
 MODFLOW STRESS PERIOD      2     CURRENT TIME STEP:      14     ITERATIONS:       6

 -----------------------------------------------------------------------------------

   CUMULATIVE VOLUMES               L**3   RATES FOR THIS TIME STEP           L**3/T
   ------------------                      ------------------------

                                     IN                                         IN
                                     --                                         --
        PRECIPITATION =                            PRECIPITATION =                  
           STREAMFLOW =                               STREAMFLOW =                  
     GW BOUNDARY FLOW =                         GW BOUNDARY FLOW =                  


                                    OUT                                        OUT
                                    ---                                        ---
   EVAPOTRANSPIRATION =         665235.67     EVAPOTRANSPIRATION =          42298.13
           STREAMFLOW =         100376.28             STREAMFLOW =           7413.77
     GW BOUNDARY FLOW =            506.61       GW BOUNDARY FLOW =             36.24

   INFLOWS - OUTFLOWS =        -766118.56     INFLOWS - OUTFLOWS =         -49748.13
             --------                                   --------

 TOTAL STORAGE CHANGE =        -764147.46         STORAGE CHANGE =         -49710.78
       --------------                             --------------
         LAND SURFACE =                             LAND SURFACE =                  
            SOIL ZONE =         -58187.20              SOIL ZONE =          -4381.89
     UNSATURATED ZONE =        -877795.88       UNSATURATED ZONE =         -52080.86
       SATURATED ZONE =         171835.62         SATURATED ZONE =           6751.97

 OVERALL BUDGET ERROR =          -1971.10           BUDGET ERROR =            -37.36


  PERCENT DISCREPANCY =             -0.26    PERCENT DISCREPANCY =             -0.08



1
 SUMMARY VOLUMETRIC BUDGET FOR GSFLOW 
 DATE: 10 21 1990              CUMULATIVE TIME STEP:      21
 MODFLOW STRESS PERIOD      2     CURRENT TIME STEP:      21     ITERATIONS:       6

 -----------------------------------------------------------------------------------

   CUMULATIVE VOLUMES               L**3   RATES FOR THIS TIME STEP           L**3/T
   ------------------                      ------------------------

                                     IN                                         IN
                                     --                                         --
        PRECIPITATION =         188432.87          PRECIPITATION =                  
           STREAMFLOW =                               STREAMFLOW =                  
     GW BOUNDARY FLOW =                         GW BOUNDARY FLOW =                  


                                    OUT                                        OUT
                                    ---                                        ---
   EVAPOTRANSPIRATION =         815509.46     EVAPOTRANSPIRATION =          41726.08
           STREAMFLOW =         163153.13             STREAMFLOW =          10150.91
     GW BOUNDARY FLOW =            760.80       GW BOUNDARY FLOW =             36.37

   INFLOWS - OUTFLOWS =        -790990.52     INFLOWS - OUTFLOWS =         -51913.36
             --------                                   --------

 TOTAL STORAGE CHANGE =        -790161.38         STORAGE CHANGE =         -51906.03
       --------------                             --------------
         LAND SURFACE =          18885.57           LAND SURFACE =         -43558.49
            SOIL ZONE =          47353.77              SOIL ZONE =           2011.83
     UNSATURATED ZONE =       -1091550.87       UNSATURATED ZONE =         -21331.07
       SATURATED ZONE =         235150.15         SATURATED ZONE =          10971.69

 OVERALL BUDGET ERROR =           -829.13           BUDGET ERROR =             -7.33


  PERCENT DISCREPANCY =             -0.08    PERCENT DISCREPANCY =             -0.01



1
 SUMMARY VOLUMETRIC BUDGET FOR GSFLOW 
 DATE: 10 28 1990              CUMULATIVE TIME STEP:      28
 MODFLOW STRESS PERIOD      2     CURRENT TIME STEP:      28     ITERATIONS:       6

 -----------------------------------------------------------------------------------

   CUMULATIVE VOLUMES               L**3   RATES FOR THIS TIME STEP           L**3/T
   ------------------                      ------------------------

                                     IN                                         IN
                                     --                                         --
        PRECIPITATION =         188432.87          PRECIPITATION =                  
           STREAMFLOW =                               STREAMFLOW =                  
     GW BOUNDARY FLOW =                         GW BOUNDARY FLOW =                  


                                    OUT                                        OUT
                                    ---                                        ---
   EVAPOTRANSPIRATION =         943929.97     EVAPOTRANSPIRATION =          11829.04
           STREAMFLOW =         224596.82             STREAMFLOW =           8923.14
     GW BOUNDARY FLOW =           1013.98       GW BOUNDARY FLOW =             36.12

   INFLOWS - OUTFLOWS =        -981107.90     INFLOWS - OUTFLOWS =         -20788.30
             --------                                   --------

 TOTAL STORAGE CHANGE =        -980171.69         STORAGE CHANGE =         -20779.05
       --------------                             --------------
         LAND SURFACE =                             LAND SURFACE =                  
            SOIL ZONE =          18302.12              SOIL ZONE =          -3431.00
     UNSATURATED ZONE =       -1274920.08       UNSATURATED ZONE =         -23234.20
       SATURATED ZONE =         276446.26         SATURATED ZONE =           5886.16

 OVERALL BUDGET ERROR =           -936.21           BUDGET ERROR =             -9.26


  PERCENT DISCREPANCY =             -0.08    PERCENT DISCREPANCY =             -0.04



1
 SUMMARY VOLUMETRIC BUDGET FOR GSFLOW 
 DATE: 11 04 1990              CUMULATIVE TIME STEP:       4
 MODFLOW STRESS PERIOD      3     CURRENT TIME STEP:      35     ITERATIONS:       6

 -----------------------------------------------------------------------------------

   CUMULATIVE VOLUMES               L**3   RATES FOR THIS TIME STEP           L**3/T
   ------------------                      ------------------------

                                     IN                                         IN
                                     --                                         --
        PRECIPITATION =         703113.06          PRECIPITATION =                  
           STREAMFLOW =                               STREAMFLOW =                  
     GW BOUNDARY FLOW =                         GW BOUNDARY FLOW =                  


                                    OUT                                        OUT
                                    ---                                        ---
   EVAPOTRANSPIRATION =        1004523.19     EVAPOTRANSPIRATION =          26291.37
           STREAMFLOW =         295193.97             STREAMFLOW =          10649.73
     GW BOUNDARY FLOW =           1267.03       GW BOUNDARY FLOW =             36.14

   INFLOWS - OUTFLOWS =        -597871.13     INFLOWS - OUTFLOWS =         -36977.24
             --------                                   --------

 TOTAL STORAGE CHANGE =        -601926.96         STORAGE CHANGE =         -38211.88
       --------------                             --------------
         LAND SURFACE =         132159.65           LAND SURFACE =        -160480.33
            SOIL ZONE =         350094.68              SOIL ZONE =         132915.31
     UNSATURATED ZONE =       -1420413.47       UNSATURATED ZONE =         -20041.14
       SATURATED ZONE =         336232.16         SATURATED ZONE =           9394.27

 OVERALL BUDGET ERROR =           4055.83           BUDGET ERROR =           1234.64

  ***WARNING, FLUX RATES OFF > 3%

  PERCENT DISCREPANCY =              0.31    PERCENT DISCREPANCY =              3.28



1
 SUMMARY VOLUMETRIC BUDGET FOR GSFLOW 
 DATE: 11 11 1990              CUMULATIVE TIME STEP:      11
 MODFLOW STRESS PERIOD      3     CURRENT TIME STEP:      42     ITERATIONS:       6

 -----------------------------------------------------------------------------------

   CUMULATIVE VOLUMES               L**3   RATES FOR THIS TIME STEP           L**3/T
   ------------------                      ------------------------

                                     IN                                         IN
                                     --                                         --
        PRECIPITATION =         703113.06          PRECIPITATION =                  
           STREAMFLOW =                               STREAMFLOW =                  
     GW BOUNDARY FLOW =                         GW BOUNDARY FLOW =                  


                                    OUT                                        OUT
                                    ---                                        ---
   EVAPOTRANSPIRATION =        1081667.99     EVAPOTRANSPIRATION =          12126.61
           STREAMFLOW =         366264.48             STREAMFLOW =           9645.83
     GW BOUNDARY FLOW =           1519.13       GW BOUNDARY FLOW =             35.92

   INFLOWS - OUTFLOWS =        -746338.54     INFLOWS - OUTFLOWS =         -21808.37
             --------                                   --------

 TOTAL STORAGE CHANGE =        -750515.96         STORAGE CHANGE =         -21799.71
       --------------                             --------------
         LAND SURFACE =            595.09           LAND SURFACE =          -1416.54
            SOIL ZONE =         422381.46              SOIL ZONE =          -5415.71
     UNSATURATED ZONE =       -1559470.00       UNSATURATED ZONE =         -19843.99
       SATURATED ZONE =         385977.46         SATURATED ZONE =           4876.52

 OVERALL BUDGET ERROR =           4177.42           BUDGET ERROR =             -8.65


  PERCENT DISCREPANCY =              0.29    PERCENT DISCREPANCY =             -0.04



1
 SUMMARY VOLUMETRIC BUDGET FOR GSFLOW 
 DATE: 11 18 1990              CUMULATIVE TIME STEP:      18
 MODFLOW STRESS PERIOD      3     CURRENT TIME STEP:      49     ITERATIONS:       6

 -----------------------------------------------------------------------------------

   CUMULATIVE VOLUMES               L**3   RATES FOR THIS TIME STEP           L**3/T
   ------------------                      ------------------------

                                     IN                                         IN
                                     --                                         --
        PRECIPITATION =         747883.35          PRECIPITATION =                  
           STREAMFLOW =                               STREAMFLOW =                  
     GW BOUNDARY FLOW =                         GW BOUNDARY FLOW =                  


                                    OUT                                        OUT
                                    ---                                        ---
   EVAPOTRANSPIRATION =        1154066.66     EVAPOTRANSPIRATION =           5057.05
           STREAMFLOW =         437994.47             STREAMFLOW =          10679.06
     GW BOUNDARY FLOW =           1770.44       GW BOUNDARY FLOW =             35.88

   INFLOWS - OUTFLOWS =        -845948.23     INFLOWS - OUTFLOWS =         -15771.99
             --------                                   --------

 TOTAL STORAGE CHANGE =        -850121.20         STORAGE CHANGE =         -15776.93
       --------------                             --------------
         LAND SURFACE =           7868.08           LAND SURFACE =          -3691.47
            SOIL ZONE =         404477.33              SOIL ZONE =           -745.85
     UNSATURATED ZONE =       -1692614.41       UNSATURATED ZONE =         -18606.85
       SATURATED ZONE =         430147.75         SATURATED ZONE =           7267.24

 OVERALL BUDGET ERROR =           4172.98           BUDGET ERROR =              4.94


  PERCENT DISCREPANCY =              0.26    PERCENT DISCREPANCY =              0.03



1
 SUMMARY VOLUMETRIC BUDGET FOR GSFLOW 
 DATE: 11 25 1990              CUMULATIVE TIME STEP:      25
 MODFLOW STRESS PERIOD      3     CURRENT TIME STEP:      56     ITERATIONS:       6

 -----------------------------------------------------------------------------------

   CUMULATIVE VOLUMES               L**3   RATES FOR THIS TIME STEP           L**3/T
   ------------------                      ------------------------

                                     IN                                         IN
                                     --                                         --
        PRECIPITATION =        1009043.38          PRECIPITATION =         186542.88
           STREAMFLOW =                               STREAMFLOW =                  
     GW BOUNDARY FLOW =                         GW BOUNDARY FLOW =                  


                                    OUT                                        OUT
                                    ---                                        ---
   EVAPOTRANSPIRATION =        1214526.00     EVAPOTRANSPIRATION =           3754.63
           STREAMFLOW =         514035.64             STREAMFLOW =          10880.56
     GW BOUNDARY FLOW =           2021.39       GW BOUNDARY FLOW =             35.79

   INFLOWS - OUTFLOWS =        -721539.65     INFLOWS - OUTFLOWS =         171871.90
             --------                                   --------

 TOTAL STORAGE CHANGE =        -727814.30         STORAGE CHANGE =         170020.20
       --------------                             --------------
         LAND SURFACE =          86180.68           LAND SURFACE =          69567.13
            SOIL ZONE =         526579.70              SOIL ZONE =         112087.63
     UNSATURATED ZONE =       -1820196.31       UNSATURATED ZONE =         -17909.61
       SATURATED ZONE =         479621.57         SATURATED ZONE =           6275.05

 OVERALL BUDGET ERROR =           6274.64           BUDGET ERROR =           1851.70


  PERCENT DISCREPANCY =              0.36    PERCENT DISCREPANCY =              1.00



1
 SUMMARY VOLUMETRIC BUDGET FOR GSFLOW 
 DATE: 12 02 1990              CUMULATIVE TIME STEP:       2
 MODFLOW STRESS PERIOD      4     CURRENT TIME STEP:      63     ITERATIONS:       6

 -----------------------------------------------------------------------------------

   CUMULATIVE VOLUMES               L**3   RATES FOR THIS TIME STEP           L**3/T
   ------------------                      ------------------------

                                     IN                                         IN
                                     --                                         --
        PRECIPITATION =        1449284.55          PRECIPITATION =                  
           STREAMFLOW =                               STREAMFLOW =                  
     GW BOUNDARY FLOW =                         GW BOUNDARY FLOW =                  


                                    OUT                                        OUT
                                    ---                                        ---
   EVAPOTRANSPIRATION =        1221021.81     EVAPOTRANSPIRATION =            234.75
           STREAMFLOW =         591294.12             STREAMFLOW =          11082.06
     GW BOUNDARY FLOW =           2271.88       GW BOUNDARY FLOW =             35.77

   INFLOWS - OUTFLOWS =        -365303.25     INFLOWS - OUTFLOWS =         -11352.58
             --------                                   --------

 TOTAL STORAGE CHANGE =        -372694.83         STORAGE CHANGE =         -11365.17
       --------------                             --------------
         LAND SURFACE =         486845.62           LAND SURFACE =           -339.04
            SOIL ZONE =         558839.81              SOIL ZONE =            142.27
     UNSATURATED ZONE =       -1943047.93       UNSATURATED ZONE =         -17256.18
       SATURATED ZONE =         524667.58         SATURATED ZONE =           6087.77

 OVERALL BUDGET ERROR =           7391.57           BUDGET ERROR =             12.60


  PERCENT DISCREPANCY =              0.41    PERCENT DISCREPANCY =              0.11



1
 SUMMARY VOLUMETRIC BUDGET FOR GSFLOW 
 DATE: 12 09 1990              CUMULATIVE TIME STEP:       9
 MODFLOW STRESS PERIOD      4     CURRENT TIME STEP:      70     ITERATIONS:       6

 -----------------------------------------------------------------------------------

   CUMULATIVE VOLUMES               L**3   RATES FOR THIS TIME STEP           L**3/T
   ------------------                      ------------------------

                                     IN                                         IN
                                     --                                         --
        PRECIPITATION =        1449284.55          PRECIPITATION =                  
           STREAMFLOW =                               STREAMFLOW =                  
     GW BOUNDARY FLOW =                         GW BOUNDARY FLOW =                  


                                    OUT                                        OUT
                                    ---                                        ---
   EVAPOTRANSPIRATION =        1296909.58     EVAPOTRANSPIRATION =          13862.47
           STREAMFLOW =         669100.36             STREAMFLOW =          10925.96
     GW BOUNDARY FLOW =           2521.84       GW BOUNDARY FLOW =             35.65

   INFLOWS - OUTFLOWS =        -519247.23     INFLOWS - OUTFLOWS =         -24824.07
             --------                                   --------

 TOTAL STORAGE CHANGE =        -531004.92         STORAGE CHANGE =         -24917.88
       --------------                             --------------
         LAND SURFACE =          67215.41           LAND SURFACE =         -45889.70
            SOIL ZONE =         901371.76              SOIL ZONE =          33526.81
     UNSATURATED ZONE =       -2060854.44       UNSATURATED ZONE =         -16486.71
       SATURATED ZONE =         561262.23         SATURATED ZONE =           3931.71

 OVERALL BUDGET ERROR =          11757.70           BUDGET ERROR =             93.81


  PERCENT DISCREPANCY =              0.60    PERCENT DISCREPANCY =              0.38



1
 SUMMARY VOLUMETRIC BUDGET FOR GSFLOW 
 DATE: 12 16 1990              CUMULATIVE TIME STEP:      16
 MODFLOW STRESS PERIOD      4     CURRENT TIME STEP:      77     ITERATIONS:       5

 -----------------------------------------------------------------------------------

   CUMULATIVE VOLUMES               L**3   RATES FOR THIS TIME STEP           L**3/T
   ------------------                      ------------------------

                                     IN                                         IN
                                     --                                         --
        PRECIPITATION =        1804962.84          PRECIPITATION =                  
           STREAMFLOW =                               STREAMFLOW =                  
     GW BOUNDARY FLOW =                         GW BOUNDARY FLOW =                  


                                    OUT                                        OUT
                                    ---                                        ---
   EVAPOTRANSPIRATION =        1325198.84     EVAPOTRANSPIRATION =                  
           STREAMFLOW =         748839.38             STREAMFLOW =          11521.23
     GW BOUNDARY FLOW =           2771.25       GW BOUNDARY FLOW =             35.61

   INFLOWS - OUTFLOWS =        -271846.63     INFLOWS - OUTFLOWS =         -11556.84
             --------                                   --------

 TOTAL STORAGE CHANGE =        -285865.83         STORAGE CHANGE =         -11572.04
       --------------                             --------------
         LAND SURFACE =         252566.26           LAND SURFACE =                  
            SOIL ZONE =        1043782.76              SOIL ZONE =            -32.91
     UNSATURATED ZONE =       -2174195.11       UNSATURATED ZONE =         -15930.82
       SATURATED ZONE =         591980.10         SATURATED ZONE =           4391.68

 OVERALL BUDGET ERROR =          14019.20           BUDGET ERROR =             15.20


  PERCENT DISCREPANCY =              0.67    PERCENT DISCREPANCY =              0.13



1
 SUMMARY VOLUMETRIC BUDGET FOR GSFLOW 
 DATE: 12 23 1990              CUMULATIVE TIME STEP:      23
 MODFLOW STRESS PERIOD      4     CURRENT TIME STEP:      84     ITERATIONS:       6

 -----------------------------------------------------------------------------------

   CUMULATIVE VOLUMES               L**3   RATES FOR THIS TIME STEP           L**3/T
   ------------------                      ------------------------

                                     IN                                         IN
                                     --                                         --
        PRECIPITATION =        2276236.55          PRECIPITATION =                  
           STREAMFLOW =                               STREAMFLOW =                  
     GW BOUNDARY FLOW =              0.08       GW BOUNDARY FLOW =              0.04


                                    OUT                                        OUT
                                    ---                                        ---
   EVAPOTRANSPIRATION =        1326256.43     EVAPOTRANSPIRATION =                  
           STREAMFLOW =         829685.93             STREAMFLOW =          11569.40
     GW BOUNDARY FLOW =           3020.29       GW BOUNDARY FLOW =             35.57

   INFLOWS - OUTFLOWS =         117273.98     INFLOWS - OUTFLOWS =         -11604.93
             --------                                   --------

 TOTAL STORAGE CHANGE =         103162.69         STORAGE CHANGE =         -11616.90
       --------------                             --------------
         LAND SURFACE =         722784.34           LAND SURFACE =                  
            SOIL ZONE =        1043900.32              SOIL ZONE =             46.58
     UNSATURATED ZONE =       -2283403.88       UNSATURATED ZONE =         -15356.22
       SATURATED ZONE =         619881.71         SATURATED ZONE =           3692.73

 OVERALL BUDGET ERROR =          14111.29           BUDGET ERROR =             11.97


  PERCENT DISCREPANCY =              0.62    PERCENT DISCREPANCY =              0.10



1
 SUMMARY VOLUMETRIC BUDGET FOR GSFLOW 
 DATE: 12 30 1990              CUMULATIVE TIME STEP:      30
 MODFLOW STRESS PERIOD      4     CURRENT TIME STEP:      91     ITERATIONS:       5

 -----------------------------------------------------------------------------------

   CUMULATIVE VOLUMES               L**3   RATES FOR THIS TIME STEP           L**3/T
   ------------------                      ------------------------

                                     IN                                         IN
                                     --                                         --
        PRECIPITATION =        2276236.55          PRECIPITATION =                  
           STREAMFLOW =                               STREAMFLOW =                  
     GW BOUNDARY FLOW =              0.77       GW BOUNDARY FLOW =              0.14


                                    OUT                                        OUT
                                    ---                                        ---
   EVAPOTRANSPIRATION =        1326823.94     EVAPOTRANSPIRATION =                  
           STREAMFLOW =         910941.99             STREAMFLOW =          11639.91
     GW BOUNDARY FLOW =           3269.40       GW BOUNDARY FLOW =             35.60

   INFLOWS - OUTFLOWS =          35201.99     INFLOWS - OUTFLOWS =         -11675.36
             --------                                   --------

 TOTAL STORAGE CHANGE =          21013.76         STORAGE CHANGE =         -11685.39
       --------------                             --------------
         LAND SURFACE =         722216.94           LAND SURFACE =                  
            SOIL ZONE =        1044428.63              SOIL ZONE =             94.73
     UNSATURATED ZONE =       -2388697.26       UNSATURATED ZONE =         -14807.74
       SATURATED ZONE =         643065.21         SATURATED ZONE =           3027.61

 OVERALL BUDGET ERROR =          14188.24           BUDGET ERROR =             10.03


  PERCENT DISCREPANCY =              0.63    PERCENT DISCREPANCY =              0.09



1
 SUMMARY VOLUMETRIC BUDGET FOR GSFLOW 
 DATE: 01 06 1991              CUMULATIVE TIME STEP:       6
 MODFLOW STRESS PERIOD      5     CURRENT TIME STEP:      98     ITERATIONS:       5

 -----------------------------------------------------------------------------------

   CUMULATIVE VOLUMES               L**3   RATES FOR THIS TIME STEP           L**3/T
   ------------------                      ------------------------

                                     IN                                         IN
                                     --                                         --
        PRECIPITATION =        2276236.55          PRECIPITATION =                  
           STREAMFLOW =                               STREAMFLOW =                  
     GW BOUNDARY FLOW =              2.09       GW BOUNDARY FLOW =              0.22


                                    OUT                                        OUT
                                    ---                                        ---
   EVAPOTRANSPIRATION =        1353835.97     EVAPOTRANSPIRATION =           3184.27
           STREAMFLOW =         992866.97             STREAMFLOW =          11744.11
     GW BOUNDARY FLOW =           3519.28       GW BOUNDARY FLOW =             35.75

   INFLOWS - OUTFLOWS =         -73983.59     INFLOWS - OUTFLOWS =         -14963.90
             --------                                   --------

 TOTAL STORAGE CHANGE =         -90723.78         STORAGE CHANGE =         -15096.30
       --------------                             --------------
         LAND SURFACE =         592099.77           LAND SURFACE =          -8106.31
            SOIL ZONE =        1145682.92              SOIL ZONE =           4882.02
     UNSATURATED ZONE =       -2490040.74       UNSATURATED ZONE =         -14245.45
       SATURATED ZONE =         661533.99         SATURATED ZONE =           2373.43

 OVERALL BUDGET ERROR =          16740.20           BUDGET ERROR =            132.39


  PERCENT DISCREPANCY =              0.71    PERCENT DISCREPANCY =              0.88



1
 SUMMARY VOLUMETRIC BUDGET FOR GSFLOW 
 DATE: 01 13 1991              CUMULATIVE TIME STEP:      13
 MODFLOW STRESS PERIOD      5     CURRENT TIME STEP:     105     ITERATIONS:       6

 -----------------------------------------------------------------------------------

   CUMULATIVE VOLUMES               L**3   RATES FOR THIS TIME STEP           L**3/T
   ------------------                      ------------------------

                                     IN                                         IN
                                     --                                         --
        PRECIPITATION =        2596386.94          PRECIPITATION =          10327.43
           STREAMFLOW =                               STREAMFLOW =                  
     GW BOUNDARY FLOW =              4.01       GW BOUNDARY FLOW =              0.31


                                    OUT                                        OUT
                                    ---                                        ---
   EVAPOTRANSPIRATION =        1420657.17     EVAPOTRANSPIRATION =          18625.37
           STREAMFLOW =        1075242.68             STREAMFLOW =          11747.53
     GW BOUNDARY FLOW =           3769.51       GW BOUNDARY FLOW =             35.73

   INFLOWS - OUTFLOWS =          96721.59     INFLOWS - OUTFLOWS =         -20080.89
             --------                                   --------

 TOTAL STORAGE CHANGE =          75032.34         STORAGE CHANGE =         -21305.18
       --------------                             --------------
         LAND SURFACE =         529885.07           LAND SURFACE =        -135264.71
            SOIL ZONE =        1458049.16              SOIL ZONE =         126525.59
     UNSATURATED ZONE =       -2587310.17       UNSATURATED ZONE =         -13691.18
       SATURATED ZONE =         674407.95         SATURATED ZONE =           1125.10

 OVERALL BUDGET ERROR =          21689.25           BUDGET ERROR =           1224.30

  ***WARNING, FLUX RATES OFF > 3%

  PERCENT DISCREPANCY =              0.84    PERCENT DISCREPANCY =              3.95



1
 SUMMARY VOLUMETRIC BUDGET FOR GSFLOW 
 DATE: 01 20 1991              CUMULATIVE TIME STEP:      20
 MODFLOW STRESS PERIOD      5     CURRENT TIME STEP:     112     ITERATIONS:       5

 -----------------------------------------------------------------------------------

   CUMULATIVE VOLUMES               L**3   RATES FOR THIS TIME STEP           L**3/T
   ------------------                      ------------------------

                                     IN                                         IN
                                     --                                         --
        PRECIPITATION =        2596386.94          PRECIPITATION =                  
           STREAMFLOW =                               STREAMFLOW =                  
     GW BOUNDARY FLOW =              6.54       GW BOUNDARY FLOW =              0.40


                                    OUT                                        OUT
                                    ---                                        ---
   EVAPOTRANSPIRATION =        1497992.43     EVAPOTRANSPIRATION =           2461.12
           STREAMFLOW =        1158448.98             STREAMFLOW =          11904.49
     GW BOUNDARY FLOW =           4019.73       GW BOUNDARY FLOW =             35.74

   INFLOWS - OUTFLOWS =         -64067.66     INFLOWS - OUTFLOWS =         -14400.96
             --------                                   --------

 TOTAL STORAGE CHANGE =         -86525.45         STORAGE CHANGE =         -14400.10
       --------------                             --------------
         LAND SURFACE =         356897.60           LAND SURFACE =           -433.81
            SOIL ZONE =        1553612.17              SOIL ZONE =          -1970.51
     UNSATURATED ZONE =       -2680709.53       UNSATURATED ZONE =         -13124.04
       SATURATED ZONE =         683673.92         SATURATED ZONE =           1128.25

 OVERALL BUDGET ERROR =          22457.79           BUDGET ERROR =             -0.86


  PERCENT DISCREPANCY =              0.84    PERCENT DISCREPANCY =             -0.01



1
 SUMMARY VOLUMETRIC BUDGET FOR GSFLOW 
 DATE: 01 27 1991              CUMULATIVE TIME STEP:      27
 MODFLOW STRESS PERIOD      5     CURRENT TIME STEP:     119     ITERATIONS:       5

 -----------------------------------------------------------------------------------

   CUMULATIVE VOLUMES               L**3   RATES FOR THIS TIME STEP           L**3/T
   ------------------                      ------------------------

                                     IN                                         IN
                                     --                                         --
        PRECIPITATION =        2596386.94          PRECIPITATION =                  
           STREAMFLOW =                               STREAMFLOW =                  
     GW BOUNDARY FLOW =              9.65       GW BOUNDARY FLOW =              0.48


                                    OUT                                        OUT
                                    ---                                        ---
   EVAPOTRANSPIRATION =        1523889.38     EVAPOTRANSPIRATION =           1702.90
           STREAMFLOW =        1241722.26             STREAMFLOW =          11921.66
     GW BOUNDARY FLOW =           4269.90       GW BOUNDARY FLOW =             35.74

   INFLOWS - OUTFLOWS =        -173484.95     INFLOWS - OUTFLOWS =         -13659.82
             --------                                   --------

 TOTAL STORAGE CHANGE =        -196160.48         STORAGE CHANGE =         -13672.12
       --------------                             --------------
         LAND SURFACE =         323033.09           LAND SURFACE =           -547.84
            SOIL ZONE =        1562288.55              SOIL ZONE =          -1065.67
     UNSATURATED ZONE =       -2770637.16       UNSATURATED ZONE =         -12629.01
       SATURATED ZONE =         689154.60         SATURATED ZONE =            570.38

 OVERALL BUDGET ERROR =          22675.52           BUDGET ERROR =             12.30


  PERCENT DISCREPANCY =              0.82    PERCENT DISCREPANCY =              0.09



1
 SUMMARY VOLUMETRIC BUDGET FOR GSFLOW 
 DATE: 02 03 1991              CUMULATIVE TIME STEP:       3
 MODFLOW STRESS PERIOD      6     CURRENT TIME STEP:     126     ITERATIONS:       6

 -----------------------------------------------------------------------------------

   CUMULATIVE VOLUMES               L**3   RATES FOR THIS TIME STEP           L**3/T
   ------------------                      ------------------------

                                     IN                                         IN
                                     --                                         --
        PRECIPITATION =        3228422.31          PRECIPITATION =          30459.53
           STREAMFLOW =                               STREAMFLOW =                  
     GW BOUNDARY FLOW =             13.31       GW BOUNDARY FLOW =              0.55


                                    OUT                                        OUT
                                    ---                                        ---
   EVAPOTRANSPIRATION =        1630898.84     EVAPOTRANSPIRATION =          21403.89
           STREAMFLOW =        1326566.87             STREAMFLOW =          12247.69
     GW BOUNDARY FLOW =           4520.00       GW BOUNDARY FLOW =             35.74

   INFLOWS - OUTFLOWS =         266449.91     INFLOWS - OUTFLOWS =          -3227.23
             --------                                   --------

 TOTAL STORAGE CHANGE =         236802.17         STORAGE CHANGE =          -3507.64
       --------------                             --------------
         LAND SURFACE =         157683.43           LAND SURFACE =         -26376.35
            SOIL ZONE =        2246087.29              SOIL ZONE =          35065.55
     UNSATURATED ZONE =       -2857244.14       UNSATURATED ZONE =         -12195.60
       SATURATED ZONE =         690275.07         SATURATED ZONE =             -1.26

 OVERALL BUDGET ERROR =          29647.74           BUDGET ERROR =            280.41


  PERCENT DISCREPANCY =              0.92    PERCENT DISCREPANCY =              0.83



1
 SUMMARY VOLUMETRIC BUDGET FOR GSFLOW 
 DATE: 02 10 1991              CUMULATIVE TIME STEP:      10
 MODFLOW STRESS PERIOD      6     CURRENT TIME STEP:     133     ITERATIONS:       5

 -----------------------------------------------------------------------------------

   CUMULATIVE VOLUMES               L**3   RATES FOR THIS TIME STEP           L**3/T
   ------------------                      ------------------------

                                     IN                                         IN
                                     --                                         --
        PRECIPITATION =        3510173.01          PRECIPITATION =                  
           STREAMFLOW =                               STREAMFLOW =                  
     GW BOUNDARY FLOW =             17.48       GW BOUNDARY FLOW =              0.63


                                    OUT                                        OUT
                                    ---                                        ---
   EVAPOTRANSPIRATION =        1798675.08     EVAPOTRANSPIRATION =          25669.06
           STREAMFLOW =        1412776.14             STREAMFLOW =          12172.02
     GW BOUNDARY FLOW =           4770.09       GW BOUNDARY FLOW =             35.72

   INFLOWS - OUTFLOWS =         293969.18     INFLOWS - OUTFLOWS =         -37876.17
             --------                                   --------

 TOTAL STORAGE CHANGE =         261736.66         STORAGE CHANGE =         -37801.20
       --------------                             --------------
         LAND SURFACE =          75877.11           LAND SURFACE =          -8469.89
            SOIL ZONE =        2437817.05              SOIL ZONE =         -17129.41
     UNSATURATED ZONE =       -2940416.17       UNSATURATED ZONE =         -11689.11
       SATURATED ZONE =         688458.08         SATURATED ZONE =           -512.80

 OVERALL BUDGET ERROR =          32232.52           BUDGET ERROR =            -74.97


  PERCENT DISCREPANCY =              0.92    PERCENT DISCREPANCY =             -0.20



1
 SUMMARY VOLUMETRIC BUDGET FOR GSFLOW 
 DATE: 02 17 1991              CUMULATIVE TIME STEP:      17
 MODFLOW STRESS PERIOD      6     CURRENT TIME STEP:     140     ITERATIONS:       5

 -----------------------------------------------------------------------------------

   CUMULATIVE VOLUMES               L**3   RATES FOR THIS TIME STEP           L**3/T
   ------------------                      ------------------------

                                     IN                                         IN
                                     --                                         --
        PRECIPITATION =        3510173.01          PRECIPITATION =                  
           STREAMFLOW =                               STREAMFLOW =                  
     GW BOUNDARY FLOW =             22.15       GW BOUNDARY FLOW =              0.70


                                    OUT                                        OUT
                                    ---                                        ---
   EVAPOTRANSPIRATION =        2041733.98     EVAPOTRANSPIRATION =          23705.62
           STREAMFLOW =        1497533.86             STREAMFLOW =          12104.36
     GW BOUNDARY FLOW =           5020.02       GW BOUNDARY FLOW =             35.68

   INFLOWS - OUTFLOWS =         -34092.69     INFLOWS - OUTFLOWS =         -35844.96
             --------                                   --------

 TOTAL STORAGE CHANGE =         -65559.56         STORAGE CHANGE =         -35769.19
       --------------                             --------------
         LAND SURFACE =          17890.99           LAND SURFACE =          -1143.67
            SOIL ZONE =        2253955.68              SOIL ZONE =         -22482.12
     UNSATURATED ZONE =       -3020049.29       UNSATURATED ZONE =         -11094.14
       SATURATED ZONE =         682642.37         SATURATED ZONE =          -1049.28

 OVERALL BUDGET ERROR =          31466.87           BUDGET ERROR =            -75.76


  PERCENT DISCREPANCY =              0.88    PERCENT DISCREPANCY =             -0.21



1
 SUMMARY VOLUMETRIC BUDGET FOR GSFLOW 
 DATE: 02 24 1991              CUMULATIVE TIME STEP:      24
 MODFLOW STRESS PERIOD      6     CURRENT TIME STEP:     147     ITERATIONS:       5

 -----------------------------------------------------------------------------------

   CUMULATIVE VOLUMES               L**3   RATES FOR THIS TIME STEP           L**3/T
   ------------------                      ------------------------

                                     IN                                         IN
                                     --                                         --
        PRECIPITATION =        3510173.01          PRECIPITATION =                  
           STREAMFLOW =                               STREAMFLOW =                  
     GW BOUNDARY FLOW =             27.30       GW BOUNDARY FLOW =              0.76


                                    OUT                                        OUT
                                    ---                                        ---
   EVAPOTRANSPIRATION =        2255165.50     EVAPOTRANSPIRATION =          21630.86
           STREAMFLOW =        1581593.69             STREAMFLOW =          11972.65
     GW BOUNDARY FLOW =           5268.94       GW BOUNDARY FLOW =             35.48

   INFLOWS - OUTFLOWS =        -331827.81     INFLOWS - OUTFLOWS =         -33638.22
             --------                                   --------

 TOTAL STORAGE CHANGE =        -362597.90         STORAGE CHANGE =         -33565.67
       --------------                             --------------
         LAND SURFACE =           7435.72           LAND SURFACE =           -217.69
            SOIL ZONE =        2052982.79              SOIL ZONE =         -21048.49
     UNSATURATED ZONE =       -3096036.66       UNSATURATED ZONE =         -10678.13
       SATURATED ZONE =         673019.49         SATURATED ZONE =          -1621.36

 OVERALL BUDGET ERROR =          30770.08           BUDGET ERROR =            -72.55


  PERCENT DISCREPANCY =              0.80    PERCENT DISCREPANCY =             -0.22



1
 SUMMARY VOLUMETRIC BUDGET FOR GSFLOW 
 DATE: 03 03 1991              CUMULATIVE TIME STEP:       3
 MODFLOW STRESS PERIOD      7     CURRENT TIME STEP:     154     ITERATIONS:       5

 -----------------------------------------------------------------------------------

   CUMULATIVE VOLUMES               L**3   RATES FOR THIS TIME STEP           L**3/T
   ------------------                      ------------------------

                                     IN                                         IN
                                     --                                         --
        PRECIPITATION =        6220189.63          PRECIPITATION =        1243187.24
           STREAMFLOW =                               STREAMFLOW =                  
     GW BOUNDARY FLOW =             32.90       GW BOUNDARY FLOW =              0.83


                                    OUT                                        OUT
                                    ---                                        ---
   EVAPOTRANSPIRATION =        2407191.99     EVAPOTRANSPIRATION =           8441.91
           STREAMFLOW =        1665169.87             STREAMFLOW =          12336.93
     GW BOUNDARY FLOW =           5516.63       GW BOUNDARY FLOW =             35.34

   INFLOWS - OUTFLOWS =        2142344.04     INFLOWS - OUTFLOWS =        1222373.90
             --------                                   --------

 TOTAL STORAGE CHANGE =        2104545.80         STORAGE CHANGE =        1214895.17
       --------------                             --------------
         LAND SURFACE =        2352761.88           LAND SURFACE =         894135.84
            SOIL ZONE =        2262859.86              SOIL ZONE =         333412.31
     UNSATURATED ZONE =       -3168935.22       UNSATURATED ZONE =         -10271.76
       SATURATED ZONE =         657858.42         SATURATED ZONE =          -2381.24

 OVERALL BUDGET ERROR =          37798.24           BUDGET ERROR =           7478.73


  PERCENT DISCREPANCY =              0.61    PERCENT DISCREPANCY =              0.60



1
 SUMMARY VOLUMETRIC BUDGET FOR GSFLOW 
 DATE: 03 10 1991              CUMULATIVE TIME STEP:      10
 MODFLOW STRESS PERIOD      7     CURRENT TIME STEP:     161     ITERATIONS:       5

 -----------------------------------------------------------------------------------

   CUMULATIVE VOLUMES               L**3   RATES FOR THIS TIME STEP           L**3/T
   ------------------                      ------------------------

                                     IN                                         IN
                                     --                                         --
        PRECIPITATION =        8746030.42          PRECIPITATION =          32888.55
           STREAMFLOW =                               STREAMFLOW =                  
     GW BOUNDARY FLOW =             38.93       GW BOUNDARY FLOW =              0.89


                                    OUT                                        OUT
                                    ---                                        ---
   EVAPOTRANSPIRATION =        2480487.51     EVAPOTRANSPIRATION =           8863.45
           STREAMFLOW =        1848307.38             STREAMFLOW =          21779.97
     GW BOUNDARY FLOW =           5765.53       GW BOUNDARY FLOW =             35.44

   INFLOWS - OUTFLOWS =        4411508.93     INFLOWS - OUTFLOWS =           2210.58
             --------                                   --------

 TOTAL STORAGE CHANGE =        4341143.72         STORAGE CHANGE =           1116.13
       --------------                             --------------
         LAND SURFACE =        2523463.28           LAND SURFACE =         -14137.08
            SOIL ZONE =        4355873.27              SOIL ZONE =          18679.06
     UNSATURATED ZONE =       -3190642.85       UNSATURATED ZONE =          -2085.82
       SATURATED ZONE =         652448.96         SATURATED ZONE =          -1340.06

 OVERALL BUDGET ERROR =          70365.22           BUDGET ERROR =           1094.45

  ***WARNING, FLUX RATES OFF > 3%

  PERCENT DISCREPANCY =              0.81    PERCENT DISCREPANCY =              3.38



1
 SUMMARY VOLUMETRIC BUDGET FOR GSFLOW 
 DATE: 03 17 1991              CUMULATIVE TIME STEP:      17
 MODFLOW STRESS PERIOD      7     CURRENT TIME STEP:     168     ITERATIONS:       5

 -----------------------------------------------------------------------------------

   CUMULATIVE VOLUMES               L**3   RATES FOR THIS TIME STEP           L**3/T
   ------------------                      ------------------------

                                     IN                                         IN
                                     --                                         --
        PRECIPITATION =        9897129.71          PRECIPITATION =         157865.04
           STREAMFLOW =                               STREAMFLOW =                  
     GW BOUNDARY FLOW =             45.38       GW BOUNDARY FLOW =              0.95


                                    OUT                                        OUT
                                    ---                                        ---
   EVAPOTRANSPIRATION =        2508325.95     EVAPOTRANSPIRATION =           8079.62
           STREAMFLOW =        1988854.97             STREAMFLOW =          19449.78
     GW BOUNDARY FLOW =           6012.77       GW BOUNDARY FLOW =             35.24

   INFLOWS - OUTFLOWS =        5393981.41     INFLOWS - OUTFLOWS =         130301.34
             --------                                   --------

 TOTAL STORAGE CHANGE =        5322168.58         STORAGE CHANGE =         130123.66
       --------------                             --------------
         LAND SURFACE =        3672302.31           LAND SURFACE =         157496.61
            SOIL ZONE =        4218711.32              SOIL ZONE =         -22427.08
     UNSATURATED ZONE =       -3208744.96       UNSATURATED ZONE =          -2874.59
       SATURATED ZONE =         639898.64         SATURATED ZONE =          -2071.30

 OVERALL BUDGET ERROR =          71812.82           BUDGET ERROR =            177.68


  PERCENT DISCREPANCY =              0.73    PERCENT DISCREPANCY =              0.11



1
 SUMMARY VOLUMETRIC BUDGET FOR GSFLOW 
 DATE: 03 24 1991              CUMULATIVE TIME STEP:      24
 MODFLOW STRESS PERIOD      7     CURRENT TIME STEP:     175     ITERATIONS:       5

 -----------------------------------------------------------------------------------

   CUMULATIVE VOLUMES               L**3   RATES FOR THIS TIME STEP           L**3/T
   ------------------                      ------------------------

                                     IN                                         IN
                                     --                                         --
        PRECIPITATION =        1.1673D+07          PRECIPITATION =        1230031.83
           STREAMFLOW =                               STREAMFLOW =                  
     GW BOUNDARY FLOW =             52.23       GW BOUNDARY FLOW =              1.00


                                    OUT                                        OUT
                                    ---                                        ---
   EVAPOTRANSPIRATION =        2547151.32     EVAPOTRANSPIRATION =           4663.35
           STREAMFLOW =        2121054.05             STREAMFLOW =          18593.21
     GW BOUNDARY FLOW =           6258.81       GW BOUNDARY FLOW =             35.08

   INFLOWS - OUTFLOWS =        6998699.54     INFLOWS - OUTFLOWS =        1206741.20
             --------                                   --------

 TOTAL STORAGE CHANGE =        6924978.64         STORAGE CHANGE =        1206572.92
       --------------                             --------------
         LAND SURFACE =        5426161.22           LAND SURFACE =        1230031.83
            SOIL ZONE =        4107563.39              SOIL ZONE =         -17327.17
     UNSATURATED ZONE =       -3232408.55       UNSATURATED ZONE =          -3633.04
       SATURATED ZONE =         623661.09         SATURATED ZONE =          -2498.72

 OVERALL BUDGET ERROR =          73720.91           BUDGET ERROR =            168.28


  PERCENT DISCREPANCY =              0.63    PERCENT DISCREPANCY =              0.01



1
 SUMMARY VOLUMETRIC BUDGET FOR GSFLOW 
 DATE: 03 31 1991              CUMULATIVE TIME STEP:      31
 MODFLOW STRESS PERIOD      7     CURRENT TIME STEP:     182     ITERATIONS:       6

 -----------------------------------------------------------------------------------

   CUMULATIVE VOLUMES               L**3   RATES FOR THIS TIME STEP           L**3/T
   ------------------                      ------------------------

                                     IN                                         IN
                                     --                                         --
        PRECIPITATION =        1.2495D+07          PRECIPITATION =                  
           STREAMFLOW =                               STREAMFLOW =                  
     GW BOUNDARY FLOW =             59.47       GW BOUNDARY FLOW =              1.06


                                    OUT                                        OUT
                                    ---                                        ---
   EVAPOTRANSPIRATION =        2668913.29     EVAPOTRANSPIRATION =          48053.54
           STREAMFLOW =        2253222.13             STREAMFLOW =          21917.59
     GW BOUNDARY FLOW =           6503.87       GW BOUNDARY FLOW =             35.02

   INFLOWS - OUTFLOWS =        7566745.47     INFLOWS - OUTFLOWS =         -70005.09
             --------                                   --------

 TOTAL STORAGE CHANGE =        7487402.50         STORAGE CHANGE =         -72968.88
       --------------                             --------------
         LAND SURFACE =        5977198.26           LAND SURFACE =        -148137.48
            SOIL ZONE =        4162353.00              SOIL ZONE =          80468.59
     UNSATURATED ZONE =       -3257532.23       UNSATURATED ZONE =          -2599.02
       SATURATED ZONE =         605381.77         SATURATED ZONE =          -2701.00

 OVERALL BUDGET ERROR =          79342.97           BUDGET ERROR =           2963.79

  ***WARNING, FLUX RATES OFF > 3%

  PERCENT DISCREPANCY =              0.64    PERCENT DISCREPANCY =              4.15



1
 SUMMARY VOLUMETRIC BUDGET FOR GSFLOW 
 DATE: 04 07 1991              CUMULATIVE TIME STEP:       7
 MODFLOW STRESS PERIOD      8     CURRENT TIME STEP:     189     ITERATIONS:       7

 -----------------------------------------------------------------------------------

   CUMULATIVE VOLUMES               L**3   RATES FOR THIS TIME STEP           L**3/T
   ------------------                      ------------------------

                                     IN                                         IN
                                     --                                         --
        PRECIPITATION =        1.3018D+07          PRECIPITATION =                  
           STREAMFLOW =                               STREAMFLOW =                  
     GW BOUNDARY FLOW =             67.08       GW BOUNDARY FLOW =              1.11


                                    OUT                                        OUT
                                    ---                                        ---
   EVAPOTRANSPIRATION =        2977005.47     EVAPOTRANSPIRATION =          15960.30
           STREAMFLOW =        2564544.22             STREAMFLOW =          62034.45
     GW BOUNDARY FLOW =           6751.16       GW BOUNDARY FLOW =             35.58

   INFLOWS - OUTFLOWS =        7469502.97     INFLOWS - OUTFLOWS =         -78029.22
             --------                                   --------

 TOTAL STORAGE CHANGE =        7352923.47         STORAGE CHANGE =         -80748.75
       --------------                             --------------
         LAND SURFACE =        4335933.24           LAND SURFACE =         -73164.41
            SOIL ZONE =        5662798.60              SOIL ZONE =         -14534.30
     UNSATURATED ZONE =       -3235601.42       UNSATURATED ZONE =           9017.92
       SATURATED ZONE =         589791.09         SATURATED ZONE =          -2068.00

 OVERALL BUDGET ERROR =         116579.49           BUDGET ERROR =           2719.52

  ***WARNING, FLUX RATES OFF > 3%

  PERCENT DISCREPANCY =              0.90    PERCENT DISCREPANCY =              3.43



1
 SUMMARY VOLUMETRIC BUDGET FOR GSFLOW 
 DATE: 04 14 1991              CUMULATIVE TIME STEP:      14
 MODFLOW STRESS PERIOD      8     CURRENT TIME STEP:     196     ITERATIONS:       7

 -----------------------------------------------------------------------------------

   CUMULATIVE VOLUMES               L**3   RATES FOR THIS TIME STEP           L**3/T
   ------------------                      ------------------------

                                     IN                                         IN
                                     --                                         --
        PRECIPITATION =        1.3018D+07          PRECIPITATION =                  
           STREAMFLOW =                               STREAMFLOW =                  
     GW BOUNDARY FLOW =             75.01       GW BOUNDARY FLOW =              1.15


                                    OUT                                        OUT
                                    ---                                        ---
   EVAPOTRANSPIRATION =        3161116.31     EVAPOTRANSPIRATION =          42037.36
           STREAMFLOW =        3042739.97             STREAMFLOW =          72763.87
     GW BOUNDARY FLOW =           7000.28       GW BOUNDARY FLOW =             35.60

   INFLOWS - OUTFLOWS =        6806955.19     INFLOWS - OUTFLOWS =        -114835.67
             --------                                   --------

 TOTAL STORAGE CHANGE =        6667439.49         STORAGE CHANGE =        -119630.61
       --------------                             --------------
         LAND SURFACE =        3672284.11           LAND SURFACE =        -192335.10
            SOIL ZONE =        5595156.98              SOIL ZONE =          66546.35
     UNSATURATED ZONE =       -3176153.38       UNSATURATED ZONE =           7947.56
       SATURATED ZONE =         576149.51         SATURATED ZONE =          -1789.46

 OVERALL BUDGET ERROR =         139515.70           BUDGET ERROR =           4794.94

  ***WARNING, FLUX RATES OFF > 3%

  PERCENT DISCREPANCY =              1.08    PERCENT DISCREPANCY =              4.09



1
 SUMMARY VOLUMETRIC BUDGET FOR GSFLOW 
 DATE: 04 21 1991              CUMULATIVE TIME STEP:      21
 MODFLOW STRESS PERIOD      8     CURRENT TIME STEP:     203     ITERATIONS:       9

 -----------------------------------------------------------------------------------

   CUMULATIVE VOLUMES               L**3   RATES FOR THIS TIME STEP           L**3/T
   ------------------                      ------------------------

                                     IN                                         IN
                                     --                                         --
        PRECIPITATION =        1.3034D+07          PRECIPITATION =                  
           STREAMFLOW =                               STREAMFLOW =                  
     GW BOUNDARY FLOW =             83.24       GW BOUNDARY FLOW =              1.19


                                    OUT                                        OUT
                                    ---                                        ---
   EVAPOTRANSPIRATION =        3414750.95     EVAPOTRANSPIRATION =          46895.54
           STREAMFLOW =        3592637.36             STREAMFLOW =          89809.65
     GW BOUNDARY FLOW =           7249.58       GW BOUNDARY FLOW =             35.72

   INFLOWS - OUTFLOWS =        6019507.45     INFLOWS - OUTFLOWS =        -136739.72
             --------                                   --------

 TOTAL STORAGE CHANGE =        5849362.86         STORAGE CHANGE =        -141828.63
       --------------                             --------------
         LAND SURFACE =        2500870.94           LAND SURFACE =        -216968.59
            SOIL ZONE =        5899698.87              SOIL ZONE =          66399.34
     UNSATURATED ZONE =       -3115238.05       UNSATURATED ZONE =          10222.43
       SATURATED ZONE =         564028.46         SATURATED ZONE =          -1481.86

 OVERALL BUDGET ERROR =         170144.58           BUDGET ERROR =           5088.91

  ***WARNING, FLUX RATES OFF > 3%

  PERCENT DISCREPANCY =              1.31    PERCENT DISCREPANCY =              3.65



1
 SUMMARY VOLUMETRIC BUDGET FOR GSFLOW 
 DATE: 04 28 1991              CUMULATIVE TIME STEP:      28
 MODFLOW STRESS PERIOD      8     CURRENT TIME STEP:     210     ITERATIONS:       6

 -----------------------------------------------------------------------------------

   CUMULATIVE VOLUMES               L**3   RATES FOR THIS TIME STEP           L**3/T
   ------------------                      ------------------------

                                     IN                                         IN
                                     --                                         --
        PRECIPITATION =        1.3303D+07          PRECIPITATION =                  
           STREAMFLOW =                               STREAMFLOW =                  
     GW BOUNDARY FLOW =             91.74       GW BOUNDARY FLOW =              1.23


                                    OUT                                        OUT
                                    ---                                        ---
   EVAPOTRANSPIRATION =        3683172.07     EVAPOTRANSPIRATION =          58231.63
           STREAMFLOW =        4236284.47             STREAMFLOW =          91238.12
     GW BOUNDARY FLOW =           7499.43       GW BOUNDARY FLOW =             35.64

   INFLOWS - OUTFLOWS =        5376566.29     INFLOWS - OUTFLOWS =        -149504.16
             --------                                   --------

 TOTAL STORAGE CHANGE =        5174597.87         STORAGE CHANGE =        -153512.69
       --------------                             --------------
         LAND SURFACE =        1748447.64           LAND SURFACE =        -137153.52
            SOIL ZONE =        5912463.03              SOIL ZONE =         -25144.84
     UNSATURATED ZONE =       -3042122.45       UNSATURATED ZONE =           9914.93
       SATURATED ZONE =         555806.62         SATURATED ZONE =          -1129.32

 OVERALL BUDGET ERROR =         201968.41           BUDGET ERROR =           4008.53


  PERCENT DISCREPANCY =              1.53    PERCENT DISCREPANCY =              2.65



1
 SUMMARY VOLUMETRIC BUDGET FOR GSFLOW 
 DATE: 05 05 1991              CUMULATIVE TIME STEP:       5
 MODFLOW STRESS PERIOD      9     CURRENT TIME STEP:     217     ITERATIONS:     226

 -----------------------------------------------------------------------------------

   CUMULATIVE VOLUMES               L**3   RATES FOR THIS TIME STEP           L**3/T
   ------------------                      ------------------------

                                     IN                                         IN
                                     --                                         --
        PRECIPITATION =        1.3510D+07          PRECIPITATION =                  
           STREAMFLOW =                               STREAMFLOW =                  
     GW BOUNDARY FLOW =            100.51       GW BOUNDARY FLOW =              1.27


                                    OUT                                        OUT
                                    ---                                        ---
   EVAPOTRANSPIRATION =        4060697.50     EVAPOTRANSPIRATION =          90410.24
           STREAMFLOW =        4819462.32             STREAMFLOW =          83178.55
     GW BOUNDARY FLOW =           7747.78       GW BOUNDARY FLOW =             35.41

   INFLOWS - OUTFLOWS =        4621901.04     INFLOWS - OUTFLOWS =        -173622.94
             --------                                   --------

 TOTAL STORAGE CHANGE =        4395510.17         STORAGE CHANGE =        -176947.81
       --------------                             --------------
         LAND SURFACE =        1036420.07           LAND SURFACE =        -150153.36
            SOIL ZONE =        5789250.12              SOIL ZONE =         -35398.85
     UNSATURATED ZONE =       -2978748.32       UNSATURATED ZONE =           7820.30
       SATURATED ZONE =         548584.85         SATURATED ZONE =            784.03

 OVERALL BUDGET ERROR =         226390.87           BUDGET ERROR =           3324.87


  PERCENT DISCREPANCY =              1.69    PERCENT DISCREPANCY =              1.90



1
 SUMMARY VOLUMETRIC BUDGET FOR GSFLOW 
 DATE: 05 12 1991              CUMULATIVE TIME STEP:      12
 MODFLOW STRESS PERIOD      9     CURRENT TIME STEP:     224     ITERATIONS:       7

 -----------------------------------------------------------------------------------

   CUMULATIVE VOLUMES               L**3   RATES FOR THIS TIME STEP           L**3/T
   ------------------                      ------------------------

                                     IN                                         IN
                                     --                                         --
        PRECIPITATION =        1.4029D+07          PRECIPITATION =                  
           STREAMFLOW =                               STREAMFLOW =                  
     GW BOUNDARY FLOW =            109.54       GW BOUNDARY FLOW =              1.31


                                    OUT                                        OUT
                                    ---                                        ---
   EVAPOTRANSPIRATION =        4456307.26     EVAPOTRANSPIRATION =          68952.27
           STREAMFLOW =        5364300.64             STREAMFLOW =          81069.24
     GW BOUNDARY FLOW =           7994.45       GW BOUNDARY FLOW =             35.20

   INFLOWS - OUTFLOWS =        4200729.36     INFLOWS - OUTFLOWS =        -150055.40
             --------                                   --------

 TOTAL STORAGE CHANGE =        3950042.00         STORAGE CHANGE =        -153120.81
       --------------                             --------------
         LAND SURFACE =         579124.41           LAND SURFACE =        -205427.93
            SOIL ZONE =        5751154.05              SOIL ZONE =          45295.90
     UNSATURATED ZONE =       -2918798.40       UNSATURATED ZONE =           8513.66
       SATURATED ZONE =         538558.04         SATURATED ZONE =          -1502.51

 OVERALL BUDGET ERROR =         250687.35           BUDGET ERROR =           3065.40


  PERCENT DISCREPANCY =              1.80    PERCENT DISCREPANCY =              2.02



1
 SUMMARY VOLUMETRIC BUDGET FOR GSFLOW 
 DATE: 05 19 1991              CUMULATIVE TIME STEP:      19
 MODFLOW STRESS PERIOD      9     CURRENT TIME STEP:     231     ITERATIONS:       9

 -----------------------------------------------------------------------------------

   CUMULATIVE VOLUMES               L**3   RATES FOR THIS TIME STEP           L**3/T
   ------------------                      ------------------------

                                     IN                                         IN
                                     --                                         --
        PRECIPITATION =        1.4365D+07          PRECIPITATION =                  
           STREAMFLOW =                               STREAMFLOW =                  
     GW BOUNDARY FLOW =            118.85       GW BOUNDARY FLOW =              1.35


                                    OUT                                        OUT
                                    ---                                        ---
   EVAPOTRANSPIRATION =        4894967.96     EVAPOTRANSPIRATION =          20444.02
           STREAMFLOW =        5838471.89             STREAMFLOW =          59985.92
     GW BOUNDARY FLOW =           8238.94       GW BOUNDARY FLOW =             34.74

   INFLOWS - OUTFLOWS =        3623818.37     INFLOWS - OUTFLOWS =         -80463.34
             --------                                   --------

 TOTAL STORAGE CHANGE =        3355638.00         STORAGE CHANGE =         -82289.52
       --------------                             --------------
         LAND SURFACE =         228252.15           LAND SURFACE =         -22354.64
            SOIL ZONE =        5471805.43              SOIL ZONE =         -63712.08
     UNSATURATED ZONE =       -2872474.18       UNSATURATED ZONE =           5262.70
       SATURATED ZONE =         528050.22         SATURATED ZONE =          -1485.57

 OVERALL BUDGET ERROR =         268180.37           BUDGET ERROR =           1826.19


  PERCENT DISCREPANCY =              1.88    PERCENT DISCREPANCY =              2.24



1
 SUMMARY VOLUMETRIC BUDGET FOR GSFLOW 
 DATE: 05 26 1991              CUMULATIVE TIME STEP:      26
 MODFLOW STRESS PERIOD      9     CURRENT TIME STEP:     238     ITERATIONS:       8

 -----------------------------------------------------------------------------------

   CUMULATIVE VOLUMES               L**3   RATES FOR THIS TIME STEP           L**3/T
   ------------------                      ------------------------

                                     IN                                         IN
                                     --                                         --
        PRECIPITATION =        1.4426D+07          PRECIPITATION =                  
           STREAMFLOW =                               STREAMFLOW =                  
     GW BOUNDARY FLOW =            128.44       GW BOUNDARY FLOW =              1.39


                                    OUT                                        OUT
                                    ---                                        ---
   EVAPOTRANSPIRATION =        5579595.69     EVAPOTRANSPIRATION =          76899.63
           STREAMFLOW =        6179585.79             STREAMFLOW =          36126.27
     GW BOUNDARY FLOW =           8480.28       GW BOUNDARY FLOW =             34.20

   INFLOWS - OUTFLOWS =        2658964.28     INFLOWS - OUTFLOWS =        -113058.70
             --------                                   --------

 TOTAL STORAGE CHANGE =        2382339.11         STORAGE CHANGE =        -113743.56
       --------------                             --------------
         LAND SURFACE =          55233.90           LAND SURFACE =          -8157.37
            SOIL ZONE =        4665627.44              SOIL ZONE =        -103065.35
     UNSATURATED ZONE =       -2854113.96       UNSATURATED ZONE =           -388.90
       SATURATED ZONE =         515586.86         SATURATED ZONE =          -2132.01

 OVERALL BUDGET ERROR =         276625.17           BUDGET ERROR =            684.86


  PERCENT DISCREPANCY =              1.94    PERCENT DISCREPANCY =              0.60



1
 SUMMARY VOLUMETRIC BUDGET FOR GSFLOW 
 DATE: 06 02 1991              CUMULATIVE TIME STEP:       2
 MODFLOW STRESS PERIOD     10     CURRENT TIME STEP:     245     ITERATIONS:       8

 -----------------------------------------------------------------------------------

   CUMULATIVE VOLUMES               L**3   RATES FOR THIS TIME STEP           L**3/T
   ------------------                      ------------------------

                                     IN                                         IN
                                     --                                         --
        PRECIPITATION =        1.4671D+07          PRECIPITATION =                  
           STREAMFLOW =                               STREAMFLOW =                  
     GW BOUNDARY FLOW =            138.32       GW BOUNDARY FLOW =              1.43


                                    OUT                                        OUT
                                    ---                                        ---
   EVAPOTRANSPIRATION =        6168775.46     EVAPOTRANSPIRATION =         127565.49
           STREAMFLOW =        6400176.73             STREAMFLOW =          27717.15
     GW BOUNDARY FLOW =           8718.40       GW BOUNDARY FLOW =             33.88

   INFLOWS - OUTFLOWS =        2093442.54     INFLOWS - OUTFLOWS =        -155315.08
             --------                                   --------

 TOTAL STORAGE CHANGE =        1813190.85         STORAGE CHANGE =        -154634.58
       --------------                             --------------
         LAND SURFACE =          19760.70           LAND SURFACE =          -4094.13
            SOIL ZONE =        4164106.04              SOIL ZONE =        -144645.84
     UNSATURATED ZONE =       -2868452.89       UNSATURATED ZONE =          -3000.56
       SATURATED ZONE =         497771.62         SATURATED ZONE =          -2894.13

 OVERALL BUDGET ERROR =         280251.69           BUDGET ERROR =           -680.50


  PERCENT DISCREPANCY =              1.93    PERCENT DISCREPANCY =             -0.44



1
 SUMMARY VOLUMETRIC BUDGET FOR GSFLOW 
 DATE: 06 09 1991              CUMULATIVE TIME STEP:       9
 MODFLOW STRESS PERIOD     10     CURRENT TIME STEP:     252     ITERATIONS:       6

 -----------------------------------------------------------------------------------

   CUMULATIVE VOLUMES               L**3   RATES FOR THIS TIME STEP           L**3/T
   ------------------                      ------------------------

                                     IN                                         IN
                                     --                                         --
        PRECIPITATION =        1.4671D+07          PRECIPITATION =                  
           STREAMFLOW =                               STREAMFLOW =                  
     GW BOUNDARY FLOW =            148.50       GW BOUNDARY FLOW =              1.47


                                    OUT                                        OUT
                                    ---                                        ---
   EVAPOTRANSPIRATION =        6957254.86     EVAPOTRANSPIRATION =         172470.54
           STREAMFLOW =        6556443.44             STREAMFLOW =          18970.87
     GW BOUNDARY FLOW =           8954.08       GW BOUNDARY FLOW =             33.53

   INFLOWS - OUTFLOWS =        1148470.92     INFLOWS - OUTFLOWS =        -191473.46
             --------                                   --------

 TOTAL STORAGE CHANGE =         873709.54         STORAGE CHANGE =        -190014.07
       --------------                             --------------
         LAND SURFACE =           3957.39           LAND SURFACE =          -2186.13
            SOIL ZONE =        3298594.14              SOIL ZONE =        -177998.69
     UNSATURATED ZONE =       -2902623.36       UNSATURATED ZONE =          -5944.04
       SATURATED ZONE =         473775.47         SATURATED ZONE =          -3885.29

 OVERALL BUDGET ERROR =         274761.38           BUDGET ERROR =          -1459.39


  PERCENT DISCREPANCY =              1.89    PERCENT DISCREPANCY =             -0.77



1
 SUMMARY VOLUMETRIC BUDGET FOR GSFLOW 
 DATE: 06 16 1991              CUMULATIVE TIME STEP:      16
 MODFLOW STRESS PERIOD     10     CURRENT TIME STEP:     259     ITERATIONS:       6

 -----------------------------------------------------------------------------------

   CUMULATIVE VOLUMES               L**3   RATES FOR THIS TIME STEP           L**3/T
   ------------------                      ------------------------

                                     IN                                         IN
                                     --                                         --
        PRECIPITATION =        1.4671D+07          PRECIPITATION =                  
           STREAMFLOW =                               STREAMFLOW =                  
     GW BOUNDARY FLOW =            158.99       GW BOUNDARY FLOW =              1.52


                                    OUT                                        OUT
                                    ---                                        ---
   EVAPOTRANSPIRATION =        7973425.26     EVAPOTRANSPIRATION =         116834.68
           STREAMFLOW =        6659383.82             STREAMFLOW =          12775.04
     GW BOUNDARY FLOW =           9186.26       GW BOUNDARY FLOW =             33.05

   INFLOWS - OUTFLOWS =          29138.45     INFLOWS - OUTFLOWS =        -129641.26
             --------                                   --------

 TOTAL STORAGE CHANGE =        -237642.90         STORAGE CHANGE =        -128969.91
       --------------                             --------------
         LAND SURFACE =            106.65           LAND SURFACE =            -66.98
            SOIL ZONE =        2306061.15              SOIL ZONE =        -107543.00
     UNSATURATED ZONE =       -2984636.90       UNSATURATED ZONE =         -15733.44
       SATURATED ZONE =         440819.75         SATURATED ZONE =          -5626.56

 OVERALL BUDGET ERROR =         266781.34           BUDGET ERROR =           -671.35


  PERCENT DISCREPANCY =              1.81    PERCENT DISCREPANCY =             -0.52



1
 SUMMARY VOLUMETRIC BUDGET FOR GSFLOW 
 DATE: 06 23 1991              CUMULATIVE TIME STEP:      23
 MODFLOW STRESS PERIOD     10     CURRENT TIME STEP:     266     ITERATIONS:       7

 -----------------------------------------------------------------------------------

   CUMULATIVE VOLUMES               L**3   RATES FOR THIS TIME STEP           L**3/T
   ------------------                      ------------------------

                                     IN                                         IN
                                     --                                         --
        PRECIPITATION =        1.4671D+07          PRECIPITATION =                  
           STREAMFLOW =                               STREAMFLOW =                  
     GW BOUNDARY FLOW =            169.79       GW BOUNDARY FLOW =              1.56


                                    OUT                                        OUT
                                    ---                                        ---
   EVAPOTRANSPIRATION =        8514561.39     EVAPOTRANSPIRATION =          38631.76
           STREAMFLOW =        6741853.49             STREAMFLOW =          12013.63
     GW BOUNDARY FLOW =           9416.94       GW BOUNDARY FLOW =             32.93

   INFLOWS - OUTFLOWS =        -594687.24     INFLOWS - OUTFLOWS =         -50676.76
             --------                                   --------

 TOTAL STORAGE CHANGE =        -858315.08         STORAGE CHANGE =         -50443.20
       --------------                             --------------
         LAND SURFACE =             16.57           LAND SURFACE =             -3.65
            SOIL ZONE =        1839813.35              SOIL ZONE =         -31424.23
     UNSATURATED ZONE =       -3093889.87       UNSATURATED ZONE =         -12540.81
       SATURATED ZONE =         395737.93         SATURATED ZONE =          -6474.58

 OVERALL BUDGET ERROR =         263627.83           BUDGET ERROR =           -233.55


  PERCENT DISCREPANCY =              1.71    PERCENT DISCREPANCY =             -0.46



1
 SUMMARY VOLUMETRIC BUDGET FOR GSFLOW 
 DATE: 06 30 1991              CUMULATIVE TIME STEP:      30
 MODFLOW STRESS PERIOD     10     CURRENT TIME STEP:     273     ITERATIONS:       8

 -----------------------------------------------------------------------------------

[...]
                                    ---                                        ---
   EVAPOTRANSPIRATION =        7.2869D+07     EVAPOTRANSPIRATION =          72684.44
           STREAMFLOW =        6.9710D+07             STREAMFLOW =           7653.32
     GW BOUNDARY FLOW =          50924.51       GW BOUNDARY FLOW =             24.07

   INFLOWS - OUTFLOWS =       -9115226.48     INFLOWS - OUTFLOWS =         -80358.37
             --------                                   --------

 TOTAL STORAGE CHANGE =       -1.1986D+07         STORAGE CHANGE =         -80281.20
       --------------                             --------------
         LAND SURFACE =         179293.22           LAND SURFACE =         -11102.33
            SOIL ZONE =        1393174.55              SOIL ZONE =         -50507.31
     UNSATURATED ZONE =         -38461.09       UNSATURATED ZONE =         -11611.76
       SATURATED ZONE =       -1.3520D+07         SATURATED ZONE =          -7059.83

 OVERALL BUDGET ERROR =        2870894.55           BUDGET ERROR =            -77.17


  PERCENT DISCREPANCY =              1.99    PERCENT DISCREPANCY =             -0.10



1
 SUMMARY VOLUMETRIC BUDGET FOR GSFLOW 
 DATE: 09 03 1995              CUMULATIVE TIME STEP:       3
 MODFLOW STRESS PERIOD     61     CURRENT TIME STEP:    1799     ITERATIONS:       7

 -----------------------------------------------------------------------------------

   CUMULATIVE VOLUMES               L**3   RATES FOR THIS TIME STEP           L**3/T
   ------------------                      ------------------------

                                     IN                                         IN
                                     --                                         --
        PRECIPITATION =        1.3351D+08          PRECIPITATION =                  
           STREAMFLOW =                               STREAMFLOW =                  
     GW BOUNDARY FLOW =           5645.22       GW BOUNDARY FLOW =              3.56


                                    OUT                                        OUT
                                    ---                                        ---
   EVAPOTRANSPIRATION =        7.3347D+07     EVAPOTRANSPIRATION =          63175.68
           STREAMFLOW =        6.9759D+07             STREAMFLOW =           6588.44
     GW BOUNDARY FLOW =          51092.61       GW BOUNDARY FLOW =             23.98

   INFLOWS - OUTFLOWS =       -9643123.17     INFLOWS - OUTFLOWS =         -69784.54
             --------                                   --------

 TOTAL STORAGE CHANGE =       -1.2514D+07         STORAGE CHANGE =         -69772.25
       --------------                             --------------
         LAND SURFACE =         114525.52           LAND SURFACE =          -7766.54
            SOIL ZONE =        1060343.98              SOIL ZONE =         -43690.35
     UNSATURATED ZONE =        -114175.14       UNSATURATED ZONE =         -10476.81
       SATURATED ZONE =       -1.3574D+07         SATURATED ZONE =          -7838.59

 OVERALL BUDGET ERROR =        2870576.86           BUDGET ERROR =            -12.28


  PERCENT DISCREPANCY =              1.99    PERCENT DISCREPANCY =             -0.02



1
 SUMMARY VOLUMETRIC BUDGET FOR GSFLOW 
 DATE: 09 10 1995              CUMULATIVE TIME STEP:      10
 MODFLOW STRESS PERIOD     61     CURRENT TIME STEP:    1806     ITERATIONS:       7

 -----------------------------------------------------------------------------------

   CUMULATIVE VOLUMES               L**3   RATES FOR THIS TIME STEP           L**3/T
   ------------------                      ------------------------

                                     IN                                         IN
                                     --                                         --
        PRECIPITATION =        1.3351D+08          PRECIPITATION =                  
           STREAMFLOW =                               STREAMFLOW =                  
     GW BOUNDARY FLOW =           5670.52       GW BOUNDARY FLOW =              3.65


                                    OUT                                        OUT
                                    ---                                        ---
   EVAPOTRANSPIRATION =        7.3701D+07     EVAPOTRANSPIRATION =          47302.62
           STREAMFLOW =        6.9806D+07             STREAMFLOW =           6627.09
     GW BOUNDARY FLOW =          51260.59       GW BOUNDARY FLOW =             23.98

   INFLOWS - OUTFLOWS =       -1.0044D+07     INFLOWS - OUTFLOWS =         -53950.04
             --------                                   --------

 TOTAL STORAGE CHANGE =       -1.2915D+07         STORAGE CHANGE =         -53941.18
       --------------                             --------------
         LAND SURFACE =          75925.35           LAND SURFACE =          -4673.87
            SOIL ZONE =         819082.42              SOIL ZONE =         -31589.14
     UNSATURATED ZONE =        -184389.66       UNSATURATED ZONE =         -10182.85
       SATURATED ZONE =       -1.3626D+07         SATURATED ZONE =          -7495.35

 OVERALL BUDGET ERROR =        2870518.28           BUDGET ERROR =             -8.86


  PERCENT DISCREPANCY =              1.98    PERCENT DISCREPANCY =             -0.02



1
 SUMMARY VOLUMETRIC BUDGET FOR GSFLOW 
 DATE: 09 17 1995              CUMULATIVE TIME STEP:      17
 MODFLOW STRESS PERIOD     61     CURRENT TIME STEP:    1813     ITERATIONS:       7

 -----------------------------------------------------------------------------------

   CUMULATIVE VOLUMES               L**3   RATES FOR THIS TIME STEP           L**3/T
   ------------------                      ------------------------

                                     IN                                         IN
                                     --                                         --
        PRECIPITATION =        1.3351D+08          PRECIPITATION =                  
           STREAMFLOW =                               STREAMFLOW =                  
     GW BOUNDARY FLOW =           5696.43       GW BOUNDARY FLOW =              3.74


                                    OUT                                        OUT
                                    ---                                        ---
   EVAPOTRANSPIRATION =        7.4082D+07     EVAPOTRANSPIRATION =          43182.94
           STREAMFLOW =        6.9845D+07             STREAMFLOW =           5792.48
     GW BOUNDARY FLOW =          51427.76       GW BOUNDARY FLOW =             23.90

   INFLOWS - OUTFLOWS =       -1.0465D+07     INFLOWS - OUTFLOWS =         -48995.58
             --------                                   --------

 TOTAL STORAGE CHANGE =       -1.3335D+07         STORAGE CHANGE =         -48986.50
       --------------                             --------------
         LAND SURFACE =          44186.54           LAND SURFACE =          -3043.17
            SOIL ZONE =         573249.66              SOIL ZONE =         -26762.65
     UNSATURATED ZONE =        -259648.89       UNSATURATED ZONE =         -10426.87
       SATURATED ZONE =       -1.3693D+07         SATURATED ZONE =          -8753.83

 OVERALL BUDGET ERROR =        2870428.91           BUDGET ERROR =             -9.08


  PERCENT DISCREPANCY =              1.97    PERCENT DISCREPANCY =             -0.02



1
 SUMMARY VOLUMETRIC BUDGET FOR GSFLOW 
 DATE: 09 24 1995              CUMULATIVE TIME STEP:      24
 MODFLOW STRESS PERIOD     61     CURRENT TIME STEP:    1820     ITERATIONS:       7

 -----------------------------------------------------------------------------------

   CUMULATIVE VOLUMES               L**3   RATES FOR THIS TIME STEP           L**3/T
   ------------------                      ------------------------

                                     IN                                         IN
                                     --                                         --
        PRECIPITATION =        1.3351D+08          PRECIPITATION =                  
           STREAMFLOW =                               STREAMFLOW =                  
     GW BOUNDARY FLOW =           5722.94       GW BOUNDARY FLOW =              3.82


                                    OUT                                        OUT
                                    ---                                        ---
   EVAPOTRANSPIRATION =        7.4348D+07     EVAPOTRANSPIRATION =          27514.01
           STREAMFLOW =        6.9887D+07             STREAMFLOW =           6427.35
     GW BOUNDARY FLOW =          51595.05       GW BOUNDARY FLOW =             23.95

   INFLOWS - OUTFLOWS =       -1.0772D+07     INFLOWS - OUTFLOWS =         -33961.49
             --------                                   --------

 TOTAL STORAGE CHANGE =       -1.3642D+07         STORAGE CHANGE =         -33956.47
       --------------                             --------------
         LAND SURFACE =          28055.76           LAND SURFACE =          -1559.79
            SOIL ZONE =         416001.99              SOIL ZONE =         -15677.42
     UNSATURATED ZONE =        -330299.10       UNSATURATED ZONE =          -8996.05
       SATURATED ZONE =       -1.3756D+07         SATURATED ZONE =          -7723.24

 OVERALL BUDGET ERROR =        2870371.70           BUDGET ERROR =             -5.02


  PERCENT DISCREPANCY =              1.97    PERCENT DISCREPANCY =             -0.01



1
 SUMMARY VOLUMETRIC BUDGET FOR GSFLOW 
 DATE: 10 01 1995              CUMULATIVE TIME STEP:       1
 MODFLOW STRESS PERIOD     62     CURRENT TIME STEP:    1827     ITERATIONS:       6

 -----------------------------------------------------------------------------------

   CUMULATIVE VOLUMES               L**3   RATES FOR THIS TIME STEP           L**3/T
   ------------------                      ------------------------

                                     IN                                         IN
                                     --                                         --
        PRECIPITATION =        1.3351D+08          PRECIPITATION =                  
           STREAMFLOW =                               STREAMFLOW =                  
     GW BOUNDARY FLOW =           5750.01       GW BOUNDARY FLOW =              3.90


                                    OUT                                        OUT
                                    ---                                        ---
   EVAPOTRANSPIRATION =        7.4464D+07     EVAPOTRANSPIRATION =          16821.72
           STREAMFLOW =        6.9938D+07             STREAMFLOW =           7416.33
     GW BOUNDARY FLOW =          51763.25       GW BOUNDARY FLOW =             24.03

   INFLOWS - OUTFLOWS =       -1.0940D+07     INFLOWS - OUTFLOWS =         -24258.17
             --------                                   --------

 TOTAL STORAGE CHANGE =       -1.3811D+07         STORAGE CHANGE =         -24259.12
       --------------                             --------------
         LAND SURFACE =          22241.70           LAND SURFACE =           -699.89
            SOIL ZONE =         352606.57              SOIL ZONE =          -9279.43
     UNSATURATED ZONE =        -386820.56       UNSATURATED ZONE =          -7927.83
       SATURATED ZONE =       -1.3799D+07         SATURATED ZONE =          -6351.99

 OVERALL BUDGET ERROR =        2870369.46           BUDGET ERROR =              0.95


  PERCENT DISCREPANCY =              1.97    PERCENT DISCREPANCY =              0.00



1
 SUMMARY VOLUMETRIC BUDGET FOR GSFLOW 
 DATE: 10 08 1995              CUMULATIVE TIME STEP:       8
 MODFLOW STRESS PERIOD     62     CURRENT TIME STEP:    1834     ITERATIONS:       6

 -----------------------------------------------------------------------------------

   CUMULATIVE VOLUMES               L**3   RATES FOR THIS TIME STEP           L**3/T
   ------------------                      ------------------------

                                     IN                                         IN
                                     --                                         --
        PRECIPITATION =        1.3351D+08          PRECIPITATION =                  
           STREAMFLOW =                               STREAMFLOW =                  
     GW BOUNDARY FLOW =           5777.62       GW BOUNDARY FLOW =              3.98


                                    OUT                                        OUT
                                    ---                                        ---
   EVAPOTRANSPIRATION =        7.4588D+07     EVAPOTRANSPIRATION =          15520.49
           STREAMFLOW =        6.9989D+07             STREAMFLOW =           7324.30
     GW BOUNDARY FLOW =          51931.39       GW BOUNDARY FLOW =             24.03

   INFLOWS - OUTFLOWS =       -1.1114D+07     INFLOWS - OUTFLOWS =         -22864.85
             --------                                   --------

 TOTAL STORAGE CHANGE =       -1.3984D+07         STORAGE CHANGE =         -22864.94
       --------------                             --------------
         LAND SURFACE =          18179.46           LAND SURFACE =           -628.45
            SOIL ZONE =         284751.58              SOIL ZONE =          -8224.75
     UNSATURATED ZONE =        -440813.94       UNSATURATED ZONE =          -7326.57
       SATURATED ZONE =       -1.3847D+07         SATURATED ZONE =          -6685.19

 OVERALL BUDGET ERROR =        2870360.43           BUDGET ERROR =              0.09


  PERCENT DISCREPANCY =              1.97    PERCENT DISCREPANCY =              0.00



1
 SUMMARY VOLUMETRIC BUDGET FOR GSFLOW 
 DATE: 10 15 1995              CUMULATIVE TIME STEP:      15
 MODFLOW STRESS PERIOD     62     CURRENT TIME STEP:    1841     ITERATIONS:       5

 -----------------------------------------------------------------------------------

   CUMULATIVE VOLUMES               L**3   RATES FOR THIS TIME STEP           L**3/T
   ------------------                      ------------------------

                                     IN                                         IN
                                     --                                         --
        PRECIPITATION =        1.3351D+08          PRECIPITATION =                  
           STREAMFLOW =                               STREAMFLOW =                  
     GW BOUNDARY FLOW =           5805.72       GW BOUNDARY FLOW =              4.04


                                    OUT                                        OUT
                                    ---                                        ---
   EVAPOTRANSPIRATION =        7.4704D+07     EVAPOTRANSPIRATION =          18120.01
           STREAMFLOW =        7.0038D+07             STREAMFLOW =           6917.48
     GW BOUNDARY FLOW =          52099.49       GW BOUNDARY FLOW =             24.00

   INFLOWS - OUTFLOWS =       -1.1280D+07     INFLOWS - OUTFLOWS =         -25057.44
             --------                                   --------

 TOTAL STORAGE CHANGE =       -1.4151D+07         STORAGE CHANGE =         -25057.05
       --------------                             --------------
         LAND SURFACE =          14037.99           LAND SURFACE =           -696.58
            SOIL ZONE =         223619.45              SOIL ZONE =          -9343.36
     UNSATURATED ZONE =        -489905.78       UNSATURATED ZONE =          -6926.30
       SATURATED ZONE =       -1.3898D+07         SATURATED ZONE =          -8090.83

 OVERALL BUDGET ERROR =        2870345.35           BUDGET ERROR =             -0.39


  PERCENT DISCREPANCY =              1.96    PERCENT DISCREPANCY =             -0.00



1
 SUMMARY VOLUMETRIC BUDGET FOR GSFLOW 
 DATE: 10 22 1995              CUMULATIVE TIME STEP:      22
 MODFLOW STRESS PERIOD     62     CURRENT TIME STEP:    1848     ITERATIONS:      13

 -----------------------------------------------------------------------------------

   CUMULATIVE VOLUMES               L**3   RATES FOR THIS TIME STEP           L**3/T
   ------------------                      ------------------------

                                     IN                                         IN
                                     --                                         --
        PRECIPITATION =        1.3351D+08          PRECIPITATION =                  
           STREAMFLOW =                               STREAMFLOW =                  
     GW BOUNDARY FLOW =           5834.27       GW BOUNDARY FLOW =              4.11


                                    OUT                                        OUT
                                    ---                                        ---
   EVAPOTRANSPIRATION =        7.4808D+07     EVAPOTRANSPIRATION =           4713.81
           STREAMFLOW =        7.0088D+07             STREAMFLOW =           8081.14
     GW BOUNDARY FLOW =          52267.63       GW BOUNDARY FLOW =             24.11

   INFLOWS - OUTFLOWS =       -1.1434D+07     INFLOWS - OUTFLOWS =         -12814.95
             --------                                   --------

 TOTAL STORAGE CHANGE =       -1.4304D+07         STORAGE CHANGE =         -12816.89
       --------------                             --------------
         LAND SURFACE =          10452.80           LAND SURFACE =             -6.45
            SOIL ZONE =         172141.10              SOIL ZONE =          -2082.65
     UNSATURATED ZONE =        -535446.40       UNSATURATED ZONE =          -6042.50
       SATURATED ZONE =       -1.3952D+07         SATURATED ZONE =          -4685.32

 OVERALL BUDGET ERROR =        2870332.21           BUDGET ERROR =              1.94


  PERCENT DISCREPANCY =              1.96    PERCENT DISCREPANCY =              0.02



1
 SUMMARY VOLUMETRIC BUDGET FOR GSFLOW 
 DATE: 10 29 1995              CUMULATIVE TIME STEP:      29
 MODFLOW STRESS PERIOD     62     CURRENT TIME STEP:    1855     ITERATIONS:       6

 -----------------------------------------------------------------------------------

   CUMULATIVE VOLUMES               L**3   RATES FOR THIS TIME STEP           L**3/T
   ------------------                      ------------------------

                                     IN                                         IN
                                     --                                         --
        PRECIPITATION =        1.3351D+08          PRECIPITATION =                  
           STREAMFLOW =                               STREAMFLOW =                  
     GW BOUNDARY FLOW =           5863.24       GW BOUNDARY FLOW =              4.17


                                    OUT                                        OUT
                                    ---                                        ---
   EVAPOTRANSPIRATION =        7.4873D+07     EVAPOTRANSPIRATION =          11351.49
           STREAMFLOW =        7.0142D+07             STREAMFLOW =           7426.55
     GW BOUNDARY FLOW =          52436.18       GW BOUNDARY FLOW =             24.06

   INFLOWS - OUTFLOWS =       -1.1554D+07     INFLOWS - OUTFLOWS =         -18797.93
             --------                                   --------

 TOTAL STORAGE CHANGE =       -1.4424D+07         STORAGE CHANGE =         -18797.87
       --------------                             --------------
         LAND SURFACE =           9254.99           LAND SURFACE =           -359.13
            SOIL ZONE =         141824.83              SOIL ZONE =          -5080.85
     UNSATURATED ZONE =        -578584.49       UNSATURATED ZONE =          -6161.42
       SATURATED ZONE =       -1.3997D+07         SATURATED ZONE =          -7196.49

 OVERALL BUDGET ERROR =        2870334.43           BUDGET ERROR =             -0.05


  PERCENT DISCREPANCY =              1.96    PERCENT DISCREPANCY =             -0.00



