1
 SUMMARY VOLUMETRIC BUDGET FOR GSFLOW 
 DATE: 10 07 1990              CUMULATIVE TIME STEP:       7
 MODFLOW STRESS PERIOD      2     CURRENT TIME STEP:       7     ITERATIONS:       7

 -----------------------------------------------------------------------------------

   CUMULATIVE VOLUMES               L**3   RATES FOR THIS TIME STEP           L**3/T
   ------------------                      ------------------------

                                     IN                                         IN
                                     --                                         --
        PRECIPITATION =                            PRECIPITATION =                  
           STREAMFLOW =                               STREAMFLOW =                  
     GW BOUNDARY FLOW =                         GW BOUNDARY FLOW =                  


                                    OUT                                        OUT
                                    ---                                        ---
   EVAPOTRANSPIRATION =         382474.05     EVAPOTRANSPIRATION =          12595.07
           STREAMFLOW =          45678.85             STREAMFLOW =           8117.34
     GW BOUNDARY FLOW =            252.78       GW BOUNDARY FLOW =             36.30

   INFLOWS - OUTFLOWS =        -428405.67     INFLOWS - OUTFLOWS =         -20748.71
             --------                                   --------

 TOTAL STORAGE CHANGE =        -426932.09         STORAGE CHANGE =         -20723.07
       --------------                             --------------
         LAND SURFACE =                             LAND SURFACE =                  
            SOIL ZONE =         -33207.99              SOIL ZONE =          -1003.50
     UNSATURATED ZONE =        -500660.07       UNSATURATED ZONE =         -34258.69
       SATURATED ZONE =         106935.97         SATURATED ZONE =          14539.12

 OVERALL BUDGET ERROR =          -1473.57           BUDGET ERROR =            -25.65


  PERCENT DISCREPANCY =             -0.34    PERCENT DISCREPANCY =             -0.12



1
 SUMMARY VOLUMETRIC BUDGET FOR GSFLOW 
 DATE: 10 14 1990              CUMULATIVE TIME STEP:      14
 MODFLOW STRESS PERIOD      2     CURRENT TIME STEP:      14     ITERATIONS:       6

 -----------------------------------------------------------------------------------

   CUMULATIVE VOLUMES               L**3   RATES FOR THIS TIME STEP           L**3/T
   ------------------                      ------------------------

                                     IN                                         IN
                                     --                                         --
        PRECIPITATION =                            PRECIPITATION =                  
           STREAMFLOW =                               STREAMFLOW =                  
     GW BOUNDARY FLOW =                         GW BOUNDARY FLOW =                  


                                    OUT                                        OUT
                                    ---                                        ---
   EVAPOTRANSPIRATION =         661810.72     EVAPOTRANSPIRATION =          42901.91
           STREAMFLOW =         100405.40             STREAMFLOW =           7405.19
     GW BOUNDARY FLOW =            506.62       GW BOUNDARY FLOW =             36.24

   INFLOWS - OUTFLOWS =        -762722.74     INFLOWS - OUTFLOWS =         -50343.34
             --------                                   --------

 TOTAL STORAGE CHANGE =        -760981.37         STORAGE CHANGE =         -50324.83
       --------------                             --------------
         LAND SURFACE =                             LAND SURFACE =                  
            SOIL ZONE =         -57924.93              SOIL ZONE =          -4415.39
     UNSATURATED ZONE =        -875124.17       UNSATURATED ZONE =         -52618.24
       SATURATED ZONE =         172067.73         SATURATED ZONE =           6708.80

 OVERALL BUDGET ERROR =          -1741.37           BUDGET ERROR =            -18.51


  PERCENT DISCREPANCY =             -0.23    PERCENT DISCREPANCY =             -0.04



1
 SUMMARY VOLUMETRIC BUDGET FOR GSFLOW 
 DATE: 10 21 1990              CUMULATIVE TIME STEP:      21
 MODFLOW STRESS PERIOD      2     CURRENT TIME STEP:      21     ITERATIONS:       6

 -----------------------------------------------------------------------------------

   CUMULATIVE VOLUMES               L**3   RATES FOR THIS TIME STEP           L**3/T
   ------------------                      ------------------------

                                     IN                                         IN
                                     --                                         --
        PRECIPITATION =         188432.87          PRECIPITATION =                  
           STREAMFLOW =                               STREAMFLOW =                  
     GW BOUNDARY FLOW =                         GW BOUNDARY FLOW =                  


                                    OUT                                        OUT
                                    ---                                        ---
   EVAPOTRANSPIRATION =         804716.06     EVAPOTRANSPIRATION =          37118.94
           STREAMFLOW =         163309.88             STREAMFLOW =          10133.00
     GW BOUNDARY FLOW =            760.80       GW BOUNDARY FLOW =             36.37

   INFLOWS - OUTFLOWS =        -780353.87     INFLOWS - OUTFLOWS =         -47288.31
             --------                                   --------

 TOTAL STORAGE CHANGE =        -779826.63         STORAGE CHANGE =         -47296.43
       --------------                             --------------
         LAND SURFACE =          15977.62           LAND SURFACE =         -34861.64
            SOIL ZONE =          55566.00              SOIL ZONE =          -1277.79
     UNSATURATED ZONE =       -1087148.59       UNSATURATED ZONE =         -21840.32
       SATURATED ZONE =         235778.34         SATURATED ZONE =          10683.31

 OVERALL BUDGET ERROR =           -527.25           BUDGET ERROR =              8.12


  PERCENT DISCREPANCY =             -0.05    PERCENT DISCREPANCY =              0.02



1
 SUMMARY VOLUMETRIC BUDGET FOR GSFLOW 
 DATE: 10 28 1990              CUMULATIVE TIME STEP:      28
 MODFLOW STRESS PERIOD      2     CURRENT TIME STEP:      28     ITERATIONS:       7

 -----------------------------------------------------------------------------------

   CUMULATIVE VOLUMES               L**3   RATES FOR THIS TIME STEP           L**3/T
   ------------------                      ------------------------

                                     IN                                         IN
                                     --                                         --
        PRECIPITATION =         188432.87          PRECIPITATION =                  
           STREAMFLOW =                               STREAMFLOW =                  
     GW BOUNDARY FLOW =                         GW BOUNDARY FLOW =                  


                                    OUT                                        OUT
                                    ---                                        ---
   EVAPOTRANSPIRATION =         930503.67     EVAPOTRANSPIRATION =          11277.51
           STREAMFLOW =         224850.23             STREAMFLOW =           8969.01
     GW BOUNDARY FLOW =           1013.99       GW BOUNDARY FLOW =             36.13

   INFLOWS - OUTFLOWS =        -967935.02     INFLOWS - OUTFLOWS =         -20282.65
             --------                                   --------

 TOTAL STORAGE CHANGE =        -967394.09         STORAGE CHANGE =         -20280.88
       --------------                             --------------
         LAND SURFACE =                             LAND SURFACE =                  
            SOIL ZONE =          26474.06              SOIL ZONE =          -3292.00
     UNSATURATED ZONE =       -1271511.64       UNSATURATED ZONE =         -23163.51
       SATURATED ZONE =         277643.48         SATURATED ZONE =           6174.63

 OVERALL BUDGET ERROR =           -540.93           BUDGET ERROR =             -1.78


  PERCENT DISCREPANCY =             -0.05    PERCENT DISCREPANCY =             -0.01



1
 SUMMARY VOLUMETRIC BUDGET FOR GSFLOW 
 DATE: 11 04 1990              CUMULATIVE TIME STEP:       4
 MODFLOW STRESS PERIOD      3     CURRENT TIME STEP:      35     ITERATIONS:       6

 -----------------------------------------------------------------------------------

   CUMULATIVE VOLUMES               L**3   RATES FOR THIS TIME STEP           L**3/T
   ------------------                      ------------------------

                                     IN                                         IN
                                     --                                         --
        PRECIPITATION =         703113.06          PRECIPITATION =                  
           STREAMFLOW =                               STREAMFLOW =                  
     GW BOUNDARY FLOW =                         GW BOUNDARY FLOW =                  


                                    OUT                                        OUT
                                    ---                                        ---
   EVAPOTRANSPIRATION =         990342.41     EVAPOTRANSPIRATION =          26063.09
           STREAMFLOW =         295911.16             STREAMFLOW =          10656.37
     GW BOUNDARY FLOW =           1267.05       GW BOUNDARY FLOW =             36.14

   INFLOWS - OUTFLOWS =        -584407.56     INFLOWS - OUTFLOWS =         -36755.61
             --------                                   --------

 TOTAL STORAGE CHANGE =        -588794.72         STORAGE CHANGE =         -38025.88
       --------------                             --------------
         LAND SURFACE =          71009.70           LAND SURFACE =         -84159.07
            SOIL ZONE =         418916.52              SOIL ZONE =          56784.33
     UNSATURATED ZONE =       -1417073.01       UNSATURATED ZONE =         -20047.60
       SATURATED ZONE =         338352.06         SATURATED ZONE =           9396.46

 OVERALL BUDGET ERROR =           4387.16           BUDGET ERROR =           1270.28

  ***WARNING, FLUX RATES OFF > 3%

  PERCENT DISCREPANCY =              0.34    PERCENT DISCREPANCY =              3.40



1
 SUMMARY VOLUMETRIC BUDGET FOR GSFLOW 
 DATE: 11 11 1990              CUMULATIVE TIME STEP:      11
 MODFLOW STRESS PERIOD      3     CURRENT TIME STEP:      42     ITERATIONS:       6

 -----------------------------------------------------------------------------------

   CUMULATIVE VOLUMES               L**3   RATES FOR THIS TIME STEP           L**3/T
   ------------------                      ------------------------

                                     IN                                         IN
                                     --                                         --
        PRECIPITATION =         703113.06          PRECIPITATION =                  
           STREAMFLOW =                               STREAMFLOW =                  
     GW BOUNDARY FLOW =                         GW BOUNDARY FLOW =                  


                                    OUT                                        OUT
                                    ---                                        ---
   EVAPOTRANSPIRATION =        1063717.39     EVAPOTRANSPIRATION =          12398.92
           STREAMFLOW =         366948.08             STREAMFLOW =           9637.90
     GW BOUNDARY FLOW =           1519.15       GW BOUNDARY FLOW =             35.92

   INFLOWS - OUTFLOWS =        -729071.57     INFLOWS - OUTFLOWS =         -22072.74
             --------                                   --------

 TOTAL STORAGE CHANGE =        -733638.64         STORAGE CHANGE =         -22071.55
       --------------                             --------------
         LAND SURFACE =            295.92           LAND SURFACE =           -859.89
            SOIL ZONE =         435210.37              SOIL ZONE =          -6117.61
     UNSATURATED ZONE =       -1556747.63       UNSATURATED ZONE =         -19970.85
       SATURATED ZONE =         387602.68         SATURATED ZONE =           4876.79

 OVERALL BUDGET ERROR =           4567.07           BUDGET ERROR =             -1.19


  PERCENT DISCREPANCY =              0.32    PERCENT DISCREPANCY =             -0.01



1
 SUMMARY VOLUMETRIC BUDGET FOR GSFLOW 
 DATE: 11 18 1990              CUMULATIVE TIME STEP:      18
 MODFLOW STRESS PERIOD      3     CURRENT TIME STEP:      49     ITERATIONS:       6

 -----------------------------------------------------------------------------------

   CUMULATIVE VOLUMES               L**3   RATES FOR THIS TIME STEP           L**3/T
   ------------------                      ------------------------

                                     IN                                         IN
                                     --                                         --
        PRECIPITATION =         747883.35          PRECIPITATION =                  
           STREAMFLOW =                               STREAMFLOW =                  
     GW BOUNDARY FLOW =                         GW BOUNDARY FLOW =                  


                                    OUT                                        OUT
                                    ---                                        ---
   EVAPOTRANSPIRATION =        1133364.03     EVAPOTRANSPIRATION =           5430.41
           STREAMFLOW =         438730.05             STREAMFLOW =          10690.03
     GW BOUNDARY FLOW =           1770.47       GW BOUNDARY FLOW =             35.88

   INFLOWS - OUTFLOWS =        -825981.20     INFLOWS - OUTFLOWS =         -16156.33
             --------                                   --------

 TOTAL STORAGE CHANGE =        -830585.59         STORAGE CHANGE =         -16167.67
       --------------                             --------------
         LAND SURFACE =          10077.61           LAND SURFACE =          -4199.79
            SOIL ZONE =         417311.19              SOIL ZONE =           -687.72
     UNSATURATED ZONE =       -1690256.40       UNSATURATED ZONE =         -18629.95
       SATURATED ZONE =         432281.97         SATURATED ZONE =           7349.79

 OVERALL BUDGET ERROR =           4604.40           BUDGET ERROR =             11.35


  PERCENT DISCREPANCY =              0.29    PERCENT DISCREPANCY =              0.07



1
 SUMMARY VOLUMETRIC BUDGET FOR GSFLOW 
 DATE: 11 25 1990              CUMULATIVE TIME STEP:      25
 MODFLOW STRESS PERIOD      3     CURRENT TIME STEP:      56     ITERATIONS:       6

 -----------------------------------------------------------------------------------

   CUMULATIVE VOLUMES               L**3   RATES FOR THIS TIME STEP           L**3/T
   ------------------                      ------------------------

                                     IN                                         IN
                                     --                                         --
        PRECIPITATION =        1009043.38          PRECIPITATION =         186542.88
           STREAMFLOW =                               STREAMFLOW =                  
     GW BOUNDARY FLOW =                         GW BOUNDARY FLOW =                  


                                    OUT                                        OUT
                                    ---                                        ---
   EVAPOTRANSPIRATION =        1194117.63     EVAPOTRANSPIRATION =           3835.41
           STREAMFLOW =         514775.59             STREAMFLOW =          10885.82
     GW BOUNDARY FLOW =           2021.41       GW BOUNDARY FLOW =             35.79

   INFLOWS - OUTFLOWS =        -701871.25     INFLOWS - OUTFLOWS =         171785.85
             --------                                   --------

 TOTAL STORAGE CHANGE =        -708621.33         STORAGE CHANGE =         169933.57
       --------------                             --------------
         LAND SURFACE =          92124.67           LAND SURFACE =          75233.82
            SOIL ZONE =         535309.09              SOIL ZONE =         106282.72
     UNSATURATED ZONE =       -1817875.62       UNSATURATED ZONE =         -17925.06
       SATURATED ZONE =         481820.46         SATURATED ZONE =           6342.08

 OVERALL BUDGET ERROR =           6750.08           BUDGET ERROR =           1852.29


  PERCENT DISCREPANCY =              0.39    PERCENT DISCREPANCY =              1.00



1
 SUMMARY VOLUMETRIC BUDGET FOR GSFLOW 
 DATE: 12 02 1990              CUMULATIVE TIME STEP:       2
 MODFLOW STRESS PERIOD      4     CURRENT TIME STEP:      63     ITERATIONS:       6

 -----------------------------------------------------------------------------------

   CUMULATIVE VOLUMES               L**3   RATES FOR THIS TIME STEP           L**3/T
   ------------------                      ------------------------

                                     IN                                         IN
                                     --                                         --
        PRECIPITATION =        1449284.55          PRECIPITATION =                  
           STREAMFLOW =                               STREAMFLOW =                  
     GW BOUNDARY FLOW =                         GW BOUNDARY FLOW =                  


                                    OUT                                        OUT
                                    ---                                        ---
   EVAPOTRANSPIRATION =        1201687.09     EVAPOTRANSPIRATION =            374.89
           STREAMFLOW =         592023.50             STREAMFLOW =          11080.71
     GW BOUNDARY FLOW =           2271.90       GW BOUNDARY FLOW =             35.77

   INFLOWS - OUTFLOWS =        -346697.94     INFLOWS - OUTFLOWS =         -11491.37
             --------                                   --------

 TOTAL STORAGE CHANGE =        -354557.04         STORAGE CHANGE =         -11504.06
       --------------                             --------------
         LAND SURFACE =         493448.43           LAND SURFACE =           -453.37
            SOIL ZONE =         565883.28              SOIL ZONE =            120.77
     UNSATURATED ZONE =       -1940741.93       UNSATURATED ZONE =         -17258.89
       SATURATED ZONE =         526853.10         SATURATED ZONE =           6087.41

 OVERALL BUDGET ERROR =           7859.10           BUDGET ERROR =             12.69


  PERCENT DISCREPANCY =              0.44    PERCENT DISCREPANCY =              0.11



1
 SUMMARY VOLUMETRIC BUDGET FOR GSFLOW 
 DATE: 12 09 1990              CUMULATIVE TIME STEP:       9
 MODFLOW STRESS PERIOD      4     CURRENT TIME STEP:      70     ITERATIONS:       6

 -----------------------------------------------------------------------------------

   CUMULATIVE VOLUMES               L**3   RATES FOR THIS TIME STEP           L**3/T
   ------------------                      ------------------------

                                     IN                                         IN
                                     --                                         --
        PRECIPITATION =        1449284.55          PRECIPITATION =                  
           STREAMFLOW =                               STREAMFLOW =                  
     GW BOUNDARY FLOW =                         GW BOUNDARY FLOW =                  


                                    OUT                                        OUT
                                    ---                                        ---
   EVAPOTRANSPIRATION =        1280175.37     EVAPOTRANSPIRATION =          14145.36
           STREAMFLOW =         669763.49             STREAMFLOW =          10897.19
     GW BOUNDARY FLOW =           2521.86       GW BOUNDARY FLOW =             35.64

   INFLOWS - OUTFLOWS =        -503176.17     INFLOWS - OUTFLOWS =         -25078.20
             --------                                   --------

 TOTAL STORAGE CHANGE =        -515502.94         STORAGE CHANGE =         -25199.47
       --------------                             --------------
         LAND SURFACE =          66382.66           LAND SURFACE =         -46525.53
            SOIL ZONE =         913440.51              SOIL ZONE =          33964.22
     UNSATURATED ZONE =       -2058551.37       UNSATURATED ZONE =         -16494.25
       SATURATED ZONE =         563225.14         SATURATED ZONE =           3856.09

 OVERALL BUDGET ERROR =          12326.77           BUDGET ERROR =            121.27


  PERCENT DISCREPANCY =              0.63    PERCENT DISCREPANCY =              0.48



1
 SUMMARY VOLUMETRIC BUDGET FOR GSFLOW 
 DATE: 12 16 1990              CUMULATIVE TIME STEP:      16
 MODFLOW STRESS PERIOD      4     CURRENT TIME STEP:      77     ITERATIONS:       6

 -----------------------------------------------------------------------------------

   CUMULATIVE VOLUMES               L**3   RATES FOR THIS TIME STEP           L**3/T
   ------------------                      ------------------------

                                     IN                                         IN
                                     --                                         --
        PRECIPITATION =        1804962.84          PRECIPITATION =                  
           STREAMFLOW =                               STREAMFLOW =                  
     GW BOUNDARY FLOW =                         GW BOUNDARY FLOW =                  


                                    OUT                                        OUT
                                    ---                                        ---
   EVAPOTRANSPIRATION =        1308795.51     EVAPOTRANSPIRATION =                  
           STREAMFLOW =         749469.21             STREAMFLOW =          11518.55
     GW BOUNDARY FLOW =           2771.27       GW BOUNDARY FLOW =             35.61

   INFLOWS - OUTFLOWS =        -256073.15     INFLOWS - OUTFLOWS =         -11554.16
             --------                                   --------

 TOTAL STORAGE CHANGE =        -270692.12         STORAGE CHANGE =         -11569.22
       --------------                             --------------
         LAND SURFACE =         256077.36           LAND SURFACE =                  
            SOIL ZONE =        1051277.80              SOIL ZONE =            -28.23
     UNSATURATED ZONE =       -2171926.03       UNSATURATED ZONE =         -15944.59
       SATURATED ZONE =         593878.60         SATURATED ZONE =           4403.59

 OVERALL BUDGET ERROR =          14618.97           BUDGET ERROR =             15.06


  PERCENT DISCREPANCY =              0.71    PERCENT DISCREPANCY =              0.13



1
 SUMMARY VOLUMETRIC BUDGET FOR GSFLOW 
 DATE: 12 23 1990              CUMULATIVE TIME STEP:      23
 MODFLOW STRESS PERIOD      4     CURRENT TIME STEP:      84     ITERATIONS:       6

 -----------------------------------------------------------------------------------

   CUMULATIVE VOLUMES               L**3   RATES FOR THIS TIME STEP           L**3/T
   ------------------                      ------------------------

                                     IN                                         IN
                                     --                                         --
        PRECIPITATION =        2276236.55          PRECIPITATION =                  
           STREAMFLOW =                               STREAMFLOW =                  
     GW BOUNDARY FLOW =              0.08       GW BOUNDARY FLOW =              0.04


                                    OUT                                        OUT
                                    ---                                        ---
   EVAPOTRANSPIRATION =        1310170.23     EVAPOTRANSPIRATION =                  
           STREAMFLOW =         830299.48             STREAMFLOW =          11567.60
     GW BOUNDARY FLOW =           3020.31       GW BOUNDARY FLOW =             35.57

   INFLOWS - OUTFLOWS =         132746.62     INFLOWS - OUTFLOWS =         -11603.13
             --------                                   --------

 TOTAL STORAGE CHANGE =         118034.97         STORAGE CHANGE =         -11615.04
       --------------                             --------------
         LAND SURFACE =         725980.66           LAND SURFACE =                  
            SOIL ZONE =        1051421.96              SOIL ZONE =             49.89
     UNSATURATED ZONE =       -2281121.37       UNSATURATED ZONE =         -15351.60
       SATURATED ZONE =         621753.53         SATURATED ZONE =           3686.67

 OVERALL BUDGET ERROR =          14711.64           BUDGET ERROR =             11.91


  PERCENT DISCREPANCY =              0.65    PERCENT DISCREPANCY =              0.10



1
 SUMMARY VOLUMETRIC BUDGET FOR GSFLOW 
 DATE: 12 30 1990              CUMULATIVE TIME STEP:      30
 MODFLOW STRESS PERIOD      4     CURRENT TIME STEP:      91     ITERATIONS:       5

 -----------------------------------------------------------------------------------

   CUMULATIVE VOLUMES               L**3   RATES FOR THIS TIME STEP           L**3/T
   ------------------                      ------------------------

                                     IN                                         IN
                                     --                                         --
        PRECIPITATION =        2276236.55          PRECIPITATION =                  
           STREAMFLOW =                               STREAMFLOW =                  
     GW BOUNDARY FLOW =              0.77       GW BOUNDARY FLOW =              0.14


                                    OUT                                        OUT
                                    ---                                        ---
   EVAPOTRANSPIRATION =        1310922.87     EVAPOTRANSPIRATION =                  
           STREAMFLOW =         911542.00             STREAMFLOW =          11638.74
     GW BOUNDARY FLOW =           3269.42       GW BOUNDARY FLOW =             35.60

   INFLOWS - OUTFLOWS =          50503.03     INFLOWS - OUTFLOWS =         -11674.20
             --------                                   --------

 TOTAL STORAGE CHANGE =          35717.58         STORAGE CHANGE =         -11683.94
       --------------                             --------------
         LAND SURFACE =         725228.17           LAND SURFACE =                  
            SOIL ZONE =        1051970.69              SOIL ZONE =             97.32
     UNSATURATED ZONE =       -2386426.98       UNSATURATED ZONE =         -14806.86
       SATURATED ZONE =         644945.47         SATURATED ZONE =           3025.60

 OVERALL BUDGET ERROR =          14785.45           BUDGET ERROR =              9.73


  PERCENT DISCREPANCY =              0.65    PERCENT DISCREPANCY =              0.08



1
 SUMMARY VOLUMETRIC BUDGET FOR GSFLOW 
 DATE: 01 06 1991              CUMULATIVE TIME STEP:       6
 MODFLOW STRESS PERIOD      5     CURRENT TIME STEP:      98     ITERATIONS:       5

 -----------------------------------------------------------------------------------

   CUMULATIVE VOLUMES               L**3   RATES FOR THIS TIME STEP           L**3/T
   ------------------                      ------------------------

                                     IN                                         IN
                                     --                                         --
        PRECIPITATION =        2276236.55          PRECIPITATION =                  
           STREAMFLOW =                               STREAMFLOW =                  
     GW BOUNDARY FLOW =              2.09       GW BOUNDARY FLOW =              0.22


                                    OUT                                        OUT
                                    ---                                        ---
   EVAPOTRANSPIRATION =        1334200.55     EVAPOTRANSPIRATION =           2584.60
           STREAMFLOW =         993436.37             STREAMFLOW =          11737.70
     GW BOUNDARY FLOW =           3519.30       GW BOUNDARY FLOW =             35.75

   INFLOWS - OUTFLOWS =         -54917.58     INFLOWS - OUTFLOWS =         -14357.82
             --------                                   --------

 TOTAL STORAGE CHANGE =         -72173.41         STORAGE CHANGE =         -14484.84
       --------------                             --------------
         LAND SURFACE =         620283.30           LAND SURFACE =          -6112.33
            SOIL ZONE =        1131908.02              SOIL ZONE =           3501.59
     UNSATURATED ZONE =       -2487777.56       UNSATURATED ZONE =         -14237.54
       SATURATED ZONE =         663412.56         SATURATED ZONE =           2363.43

 OVERALL BUDGET ERROR =          17255.82           BUDGET ERROR =            127.03


  PERCENT DISCREPANCY =              0.74    PERCENT DISCREPANCY =              0.88



1
 SUMMARY VOLUMETRIC BUDGET FOR GSFLOW 
 DATE: 01 13 1991              CUMULATIVE TIME STEP:      13
 MODFLOW STRESS PERIOD      5     CURRENT TIME STEP:     105     ITERATIONS:       6

 -----------------------------------------------------------------------------------

   CUMULATIVE VOLUMES               L**3   RATES FOR THIS TIME STEP           L**3/T
   ------------------                      ------------------------

                                     IN                                         IN
                                     --                                         --
        PRECIPITATION =        2596386.94          PRECIPITATION =          10327.43
           STREAMFLOW =                               STREAMFLOW =                  
     GW BOUNDARY FLOW =              4.02       GW BOUNDARY FLOW =              0.31


                                    OUT                                        OUT
                                    ---                                        ---
   EVAPOTRANSPIRATION =        1394795.66     EVAPOTRANSPIRATION =          17394.99
           STREAMFLOW =        1075755.88             STREAMFLOW =          11732.44
     GW BOUNDARY FLOW =           3769.53       GW BOUNDARY FLOW =             35.73

   INFLOWS - OUTFLOWS =         122069.90     INFLOWS - OUTFLOWS =         -18835.42
             --------                                   --------

 TOTAL STORAGE CHANGE =          99794.54         STORAGE CHANGE =         -20120.64
       --------------                             --------------
         LAND SURFACE =         586364.86           LAND SURFACE =        -135127.18
            SOIL ZONE =        1422188.14              SOIL ZONE =         127608.89
     UNSATURATED ZONE =       -2585077.04       UNSATURATED ZONE =         -13714.11
       SATURATED ZONE =         676318.25         SATURATED ZONE =           1111.75

 OVERALL BUDGET ERROR =          22275.36           BUDGET ERROR =           1285.22

  ***WARNING, FLUX RATES OFF > 3%

  PERCENT DISCREPANCY =              0.86    PERCENT DISCREPANCY =              4.31



1
 SUMMARY VOLUMETRIC BUDGET FOR GSFLOW 
 DATE: 01 20 1991              CUMULATIVE TIME STEP:      20
 MODFLOW STRESS PERIOD      5     CURRENT TIME STEP:     112     ITERATIONS:       5

 -----------------------------------------------------------------------------------

   CUMULATIVE VOLUMES               L**3   RATES FOR THIS TIME STEP           L**3/T
   ------------------                      ------------------------

                                     IN                                         IN
                                     --                                         --
        PRECIPITATION =        2596386.94          PRECIPITATION =                  
           STREAMFLOW =                               STREAMFLOW =                  
     GW BOUNDARY FLOW =              6.55       GW BOUNDARY FLOW =              0.40


                                    OUT                                        OUT
                                    ---                                        ---
   EVAPOTRANSPIRATION =        1465466.07     EVAPOTRANSPIRATION =           1892.63
           STREAMFLOW =        1158915.94             STREAMFLOW =          11898.58
     GW BOUNDARY FLOW =           4019.74       GW BOUNDARY FLOW =             35.74

   INFLOWS - OUTFLOWS =         -32008.26     INFLOWS - OUTFLOWS =         -13826.57
             --------                                   --------

 TOTAL STORAGE CHANGE =         -55330.54         STORAGE CHANGE =         -13835.07
       --------------                             --------------
         LAND SURFACE =         422210.59           LAND SURFACE =           -295.67
            SOIL ZONE =        1515297.55              SOIL ZONE =          -1547.82
     UNSATURATED ZONE =       -2678482.66       UNSATURATED ZONE =         -13122.19
       SATURATED ZONE =         685643.59         SATURATED ZONE =           1130.59

 OVERALL BUDGET ERROR =          23322.28           BUDGET ERROR =              8.51


  PERCENT DISCREPANCY =              0.88    PERCENT DISCREPANCY =              0.06



1
 SUMMARY VOLUMETRIC BUDGET FOR GSFLOW 
 DATE: 01 27 1991              CUMULATIVE TIME STEP:      27
 MODFLOW STRESS PERIOD      5     CURRENT TIME STEP:     119     ITERATIONS:       5

 -----------------------------------------------------------------------------------

   CUMULATIVE VOLUMES               L**3   RATES FOR THIS TIME STEP           L**3/T
   ------------------                      ------------------------

                                     IN                                         IN
                                     --                                         --
        PRECIPITATION =        2596386.94          PRECIPITATION =                  
           STREAMFLOW =                               STREAMFLOW =                  
     GW BOUNDARY FLOW =              9.66       GW BOUNDARY FLOW =              0.48


                                    OUT                                        OUT
                                    ---                                        ---
   EVAPOTRANSPIRATION =        1487522.33     EVAPOTRANSPIRATION =           1239.77
           STREAMFLOW =        1242154.91             STREAMFLOW =          11917.80
     GW BOUNDARY FLOW =           4269.91       GW BOUNDARY FLOW =             35.74

   INFLOWS - OUTFLOWS =        -137550.55     INFLOWS - OUTFLOWS =         -13192.83
             --------                                   --------

 TOTAL STORAGE CHANGE =        -161131.49         STORAGE CHANGE =         -13192.69
       --------------                             --------------
         LAND SURFACE =         394226.40           LAND SURFACE =           -109.80
            SOIL ZONE =        1521905.17              SOIL ZONE =          -1027.12
     UNSATURATED ZONE =       -2768373.63       UNSATURATED ZONE =         -12622.13
       SATURATED ZONE =         691110.14         SATURATED ZONE =            566.35

 OVERALL BUDGET ERROR =          23580.94           BUDGET ERROR =             -0.14


  PERCENT DISCREPANCY =              0.86    PERCENT DISCREPANCY =             -0.00



1
 SUMMARY VOLUMETRIC BUDGET FOR GSFLOW 
 DATE: 02 03 1991              CUMULATIVE TIME STEP:       3
 MODFLOW STRESS PERIOD      6     CURRENT TIME STEP:     126     ITERATIONS:       6

 -----------------------------------------------------------------------------------

   CUMULATIVE VOLUMES               L**3   RATES FOR THIS TIME STEP           L**3/T
   ------------------                      ------------------------

                                     IN                                         IN
                                     --                                         --
        PRECIPITATION =        3228422.31          PRECIPITATION =          30459.53
           STREAMFLOW =                               STREAMFLOW =                  
     GW BOUNDARY FLOW =             13.31       GW BOUNDARY FLOW =              0.55


                                    OUT                                        OUT
                                    ---                                        ---
   EVAPOTRANSPIRATION =        1589882.84     EVAPOTRANSPIRATION =          20507.84
           STREAMFLOW =        1326925.65             STREAMFLOW =          12246.12
     GW BOUNDARY FLOW =           4520.01       GW BOUNDARY FLOW =             35.74

   INFLOWS - OUTFLOWS =         307107.13     INFLOWS - OUTFLOWS =          -2329.61
             --------                                   --------

 TOTAL STORAGE CHANGE =         276456.36         STORAGE CHANGE =          -2605.59
       --------------                             --------------
         LAND SURFACE =         184727.70           LAND SURFACE =         -28670.24
            SOIL ZONE =        2254726.40              SOIL ZONE =          38295.70
     UNSATURATED ZONE =       -2855058.83       UNSATURATED ZONE =         -12217.02
       SATURATED ZONE =         692060.58         SATURATED ZONE =            -14.04

 OVERALL BUDGET ERROR =          30650.77           BUDGET ERROR =            275.98


  PERCENT DISCREPANCY =              0.95    PERCENT DISCREPANCY =              0.84



1
 SUMMARY VOLUMETRIC BUDGET FOR GSFLOW 
 DATE: 02 10 1991              CUMULATIVE TIME STEP:      10
 MODFLOW STRESS PERIOD      6     CURRENT TIME STEP:     133     ITERATIONS:       5

 -----------------------------------------------------------------------------------

   CUMULATIVE VOLUMES               L**3   RATES FOR THIS TIME STEP           L**3/T
   ------------------                      ------------------------

                                     IN                                         IN
                                     --                                         --
        PRECIPITATION =        3510173.01          PRECIPITATION =                  
           STREAMFLOW =                               STREAMFLOW =                  
     GW BOUNDARY FLOW =             17.49       GW BOUNDARY FLOW =              0.63


                                    OUT                                        OUT
                                    ---                                        ---
   EVAPOTRANSPIRATION =        1756765.16     EVAPOTRANSPIRATION =          25852.40
           STREAMFLOW =        1412987.97             STREAMFLOW =          12172.37
     GW BOUNDARY FLOW =           4770.09       GW BOUNDARY FLOW =             35.72

   INFLOWS - OUTFLOWS =         335667.27     INFLOWS - OUTFLOWS =         -38059.87
             --------                                   --------

 TOTAL STORAGE CHANGE =         302023.54         STORAGE CHANGE =         -38013.60
       --------------                             --------------
         LAND SURFACE =          90050.80           LAND SURFACE =         -12330.62
            SOIL ZONE =        2460181.45              SOIL ZONE =         -13444.01
     UNSATURATED ZONE =       -2938276.83       UNSATURATED ZONE =         -11709.11
       SATURATED ZONE =         690067.53         SATURATED ZONE =           -529.87

 OVERALL BUDGET ERROR =          33643.73           BUDGET ERROR =            -46.27


  PERCENT DISCREPANCY =              0.96    PERCENT DISCREPANCY =             -0.12



1
 SUMMARY VOLUMETRIC BUDGET FOR GSFLOW 
 DATE: 02 17 1991              CUMULATIVE TIME STEP:      17
 MODFLOW STRESS PERIOD      6     CURRENT TIME STEP:     140     ITERATIONS:       5

 -----------------------------------------------------------------------------------

   CUMULATIVE VOLUMES               L**3   RATES FOR THIS TIME STEP           L**3/T
   ------------------                      ------------------------

                                     IN                                         IN
                                     --                                         --
        PRECIPITATION =        3510173.01          PRECIPITATION =                  
           STREAMFLOW =                               STREAMFLOW =                  
     GW BOUNDARY FLOW =             22.16       GW BOUNDARY FLOW =              0.70


                                    OUT                                        OUT
                                    ---                                        ---
   EVAPOTRANSPIRATION =        2000256.51     EVAPOTRANSPIRATION =          23256.88
           STREAMFLOW =        1497792.21             STREAMFLOW =          12111.46
     GW BOUNDARY FLOW =           5020.03       GW BOUNDARY FLOW =             35.68

   INFLOWS - OUTFLOWS =           7126.42     INFLOWS - OUTFLOWS =         -35403.32
             --------                                   --------

 TOTAL STORAGE CHANGE =         -25895.85         STORAGE CHANGE =         -35326.87
       --------------                             --------------
         LAND SURFACE =          18163.74           LAND SURFACE =          -1654.25
            SOIL ZONE =        2289633.67              SOIL ZONE =         -21557.53
     UNSATURATED ZONE =       -3017901.75       UNSATURATED ZONE =         -11066.34
       SATURATED ZONE =         684207.81         SATURATED ZONE =          -1048.76

 OVERALL BUDGET ERROR =          33022.27           BUDGET ERROR =            -76.44


  PERCENT DISCREPANCY =              0.94    PERCENT DISCREPANCY =             -0.22



1
 SUMMARY VOLUMETRIC BUDGET FOR GSFLOW 
 DATE: 02 24 1991              CUMULATIVE TIME STEP:      24
 MODFLOW STRESS PERIOD      6     CURRENT TIME STEP:     147     ITERATIONS:       5

 -----------------------------------------------------------------------------------

   CUMULATIVE VOLUMES               L**3   RATES FOR THIS TIME STEP           L**3/T
   ------------------                      ------------------------

                                     IN                                         IN
                                     --                                         --
        PRECIPITATION =        3510173.01          PRECIPITATION =                  
           STREAMFLOW =                               STREAMFLOW =                  
     GW BOUNDARY FLOW =             27.31       GW BOUNDARY FLOW =              0.76


                                    OUT                                        OUT
                                    ---                                        ---
   EVAPOTRANSPIRATION =        2216418.49     EVAPOTRANSPIRATION =          21963.24
           STREAMFLOW =        1581876.02             STREAMFLOW =          11971.28
     GW BOUNDARY FLOW =           5268.95       GW BOUNDARY FLOW =             35.48

   INFLOWS - OUTFLOWS =        -293363.14     INFLOWS - OUTFLOWS =         -33969.23
             --------                                   --------

 TOTAL STORAGE CHANGE =        -325675.15         STORAGE CHANGE =         -33894.64
       --------------                             --------------
         LAND SURFACE =           6686.42           LAND SURFACE =           -239.07
            SOIL ZONE =        2086746.86              SOIL ZONE =         -21384.70
     UNSATURATED ZONE =       -3093709.17       UNSATURATED ZONE =         -10663.53
       SATURATED ZONE =         674599.98         SATURATED ZONE =          -1607.36

 OVERALL BUDGET ERROR =          32312.01           BUDGET ERROR =            -74.59


  PERCENT DISCREPANCY =              0.85    PERCENT DISCREPANCY =             -0.22



1
 SUMMARY VOLUMETRIC BUDGET FOR GSFLOW 
 DATE: 03 03 1991              CUMULATIVE TIME STEP:       3
 MODFLOW STRESS PERIOD      7     CURRENT TIME STEP:     154     ITERATIONS:       5

 -----------------------------------------------------------------------------------

   CUMULATIVE VOLUMES               L**3   RATES FOR THIS TIME STEP           L**3/T
   ------------------                      ------------------------

                                     IN                                         IN
                                     --                                         --
        PRECIPITATION =        6220189.63          PRECIPITATION =        1243187.24
           STREAMFLOW =                               STREAMFLOW =                  
     GW BOUNDARY FLOW =             32.91       GW BOUNDARY FLOW =              0.83


                                    OUT                                        OUT
                                    ---                                        ---
   EVAPOTRANSPIRATION =        2368615.97     EVAPOTRANSPIRATION =           8010.46
           STREAMFLOW =        1665405.88             STREAMFLOW =          12223.70
     GW BOUNDARY FLOW =           5516.65       GW BOUNDARY FLOW =             35.33

   INFLOWS - OUTFLOWS =        2180684.05     INFLOWS - OUTFLOWS =        1222918.58
             --------                                   --------

 TOTAL STORAGE CHANGE =        2142119.72         STORAGE CHANGE =        1216213.63
       --------------                             --------------
         LAND SURFACE =        2505904.36           LAND SURFACE =        1046748.89
            SOIL ZONE =        2143178.20              SOIL ZONE =         182142.80
     UNSATURATED ZONE =       -3166584.21       UNSATURATED ZONE =         -10283.30
       SATURATED ZONE =         659620.51         SATURATED ZONE =          -2394.77

 OVERALL BUDGET ERROR =          38564.33           BUDGET ERROR =           6704.95


  PERCENT DISCREPANCY =              0.62    PERCENT DISCREPANCY =              0.54



1
 SUMMARY VOLUMETRIC BUDGET FOR GSFLOW 
 DATE: 03 10 1991              CUMULATIVE TIME STEP:      10
 MODFLOW STRESS PERIOD      7     CURRENT TIME STEP:     161     ITERATIONS:       5

 -----------------------------------------------------------------------------------

   CUMULATIVE VOLUMES               L**3   RATES FOR THIS TIME STEP           L**3/T
   ------------------                      ------------------------

                                     IN                                         IN
                                     --                                         --
        PRECIPITATION =        8746030.42          PRECIPITATION =          32888.55
           STREAMFLOW =                               STREAMFLOW =                  
     GW BOUNDARY FLOW =             38.95       GW BOUNDARY FLOW =              0.89


                                    OUT                                        OUT
                                    ---                                        ---
   EVAPOTRANSPIRATION =        2427748.40     EVAPOTRANSPIRATION =           8408.63
           STREAMFLOW =        1799903.64             STREAMFLOW =          18242.98
     GW BOUNDARY FLOW =           5764.72       GW BOUNDARY FLOW =             35.36

   INFLOWS - OUTFLOWS =        4512652.61     INFLOWS - OUTFLOWS =           6202.47
             --------                                   --------

 TOTAL STORAGE CHANGE =        4444264.36         STORAGE CHANGE =           5636.97
       --------------                             --------------
         LAND SURFACE =        3082070.49           LAND SURFACE =            535.10
            SOIL ZONE =        3919770.67              SOIL ZONE =          11703.96
     UNSATURATED ZONE =       -3209195.20       UNSATURATED ZONE =          -5222.29
       SATURATED ZONE =         651617.35         SATURATED ZONE =          -1379.83

 OVERALL BUDGET ERROR =          68388.26           BUDGET ERROR =            565.50


  PERCENT DISCREPANCY =              0.79    PERCENT DISCREPANCY =              1.73



1
 SUMMARY VOLUMETRIC BUDGET FOR GSFLOW 
 DATE: 03 17 1991              CUMULATIVE TIME STEP:      17
 MODFLOW STRESS PERIOD      7     CURRENT TIME STEP:     168     ITERATIONS:       5

 -----------------------------------------------------------------------------------

   CUMULATIVE VOLUMES               L**3   RATES FOR THIS TIME STEP           L**3/T
   ------------------                      ------------------------

                                     IN                                         IN
                                     --                                         --
        PRECIPITATION =        9897129.71          PRECIPITATION =         157865.04
           STREAMFLOW =                               STREAMFLOW =                  
     GW BOUNDARY FLOW =             45.40       GW BOUNDARY FLOW =              0.95


                                    OUT                                        OUT
                                    ---                                        ---
   EVAPOTRANSPIRATION =        2453424.88     EVAPOTRANSPIRATION =           7593.05
           STREAMFLOW =        1920117.77             STREAMFLOW =          16738.55
     GW BOUNDARY FLOW =           6011.51       GW BOUNDARY FLOW =             35.18

   INFLOWS - OUTFLOWS =        5517620.96     INFLOWS - OUTFLOWS =         133499.21
             --------                                   --------

 TOTAL STORAGE CHANGE =        5451320.67         STORAGE CHANGE =         133856.27
       --------------                             --------------
         LAND SURFACE =        4232943.09           LAND SURFACE =         157846.09
            SOIL ZONE =        3828004.82              SOIL ZONE =         -16127.48
     UNSATURATED ZONE =       -3247502.08       UNSATURATED ZONE =          -5605.69
       SATURATED ZONE =         637873.58         SATURATED ZONE =          -2256.67

 OVERALL BUDGET ERROR =          66300.29           BUDGET ERROR =           -357.06


  PERCENT DISCREPANCY =              0.67    PERCENT DISCREPANCY =             -0.23



1
 SUMMARY VOLUMETRIC BUDGET FOR GSFLOW 
 DATE: 03 24 1991              CUMULATIVE TIME STEP:      24
 MODFLOW STRESS PERIOD      7     CURRENT TIME STEP:     175     ITERATIONS:       5

 -----------------------------------------------------------------------------------

   CUMULATIVE VOLUMES               L**3   RATES FOR THIS TIME STEP           L**3/T
   ------------------                      ------------------------

                                     IN                                         IN
                                     --                                         --
        PRECIPITATION =        1.1673D+07          PRECIPITATION =        1230031.83
           STREAMFLOW =                               STREAMFLOW =                  
     GW BOUNDARY FLOW =             52.27       GW BOUNDARY FLOW =              1.00


                                    OUT                                        OUT
                                    ---                                        ---
   EVAPOTRANSPIRATION =        2489005.49     EVAPOTRANSPIRATION =           4146.88
           STREAMFLOW =        2034349.68             STREAMFLOW =          16098.17
     GW BOUNDARY FLOW =           6257.14       GW BOUNDARY FLOW =             35.02

   INFLOWS - OUTFLOWS =        7143551.46     INFLOWS - OUTFLOWS =        1209752.77
             --------                                   --------

 TOTAL STORAGE CHANGE =        7079433.81         STORAGE CHANGE =        1210149.32
       --------------                             --------------
         LAND SURFACE =        6001644.06           LAND SURFACE =        1230031.83
            SOIL ZONE =        3746241.24              SOIL ZONE =         -11111.91
     UNSATURATED ZONE =       -3288477.61       UNSATURATED ZONE =          -6022.16
       SATURATED ZONE =         620024.65         SATURATED ZONE =          -2748.47

 OVERALL BUDGET ERROR =          64117.65           BUDGET ERROR =           -396.55


  PERCENT DISCREPANCY =              0.55    PERCENT DISCREPANCY =             -0.03



1
 SUMMARY VOLUMETRIC BUDGET FOR GSFLOW 
 DATE: 03 31 1991              CUMULATIVE TIME STEP:      31
 MODFLOW STRESS PERIOD      7     CURRENT TIME STEP:     182     ITERATIONS:       6

 -----------------------------------------------------------------------------------

   CUMULATIVE VOLUMES               L**3   RATES FOR THIS TIME STEP           L**3/T
   ------------------                      ------------------------

                                     IN                                         IN
                                     --                                         --
        PRECIPITATION =        1.2495D+07          PRECIPITATION =                  
           STREAMFLOW =                               STREAMFLOW =                  
     GW BOUNDARY FLOW =             59.52       GW BOUNDARY FLOW =              1.06


                                    OUT                                        OUT
                                    ---                                        ---
   EVAPOTRANSPIRATION =        2597296.79     EVAPOTRANSPIRATION =          44703.21
           STREAMFLOW =        2148903.95             STREAMFLOW =          18207.57
     GW BOUNDARY FLOW =           6501.80       GW BOUNDARY FLOW =             34.94

   INFLOWS - OUTFLOWS =        7742682.26     INFLOWS - OUTFLOWS =         -62944.67
             --------                                   --------

 TOTAL STORAGE CHANGE =        7677505.23         STORAGE CHANGE =         -65068.48
       --------------                             --------------
         LAND SURFACE =        6627859.43           LAND SURFACE =        -109529.99
            SOIL ZONE =        3779948.30              SOIL ZONE =          52518.88
     UNSATURATED ZONE =       -3329725.53       UNSATURATED ZONE =          -5154.63
       SATURATED ZONE =         599421.36         SATURATED ZONE =          -2902.76

 OVERALL BUDGET ERROR =          65177.03           BUDGET ERROR =           2123.81

  ***WARNING, FLUX RATES OFF > 3%

  PERCENT DISCREPANCY =              0.52    PERCENT DISCREPANCY =              3.32



1
 SUMMARY VOLUMETRIC BUDGET FOR GSFLOW 
 DATE: 04 07 1991              CUMULATIVE TIME STEP:       7
 MODFLOW STRESS PERIOD      8     CURRENT TIME STEP:     189     ITERATIONS:       7

 -----------------------------------------------------------------------------------

   CUMULATIVE VOLUMES               L**3   RATES FOR THIS TIME STEP           L**3/T
   ------------------                      ------------------------

                                     IN                                         IN
                                     --                                         --
        PRECIPITATION =        1.3018D+07          PRECIPITATION =                  
           STREAMFLOW =                               STREAMFLOW =                  
     GW BOUNDARY FLOW =             67.15       GW BOUNDARY FLOW =              1.11


                                    OUT                                        OUT
                                    ---                                        ---
   EVAPOTRANSPIRATION =        2884603.97     EVAPOTRANSPIRATION =          13551.18
           STREAMFLOW =        2402282.13             STREAMFLOW =          51565.64
     GW BOUNDARY FLOW =           6748.20       GW BOUNDARY FLOW =             35.43

   INFLOWS - OUTFLOWS =        7724169.59     INFLOWS - OUTFLOWS =         -65151.15
             --------                                   --------

 TOTAL STORAGE CHANGE =        7639656.68         STORAGE CHANGE =         -63376.98
       --------------                             --------------
         LAND SURFACE =        5127084.68           LAND SURFACE =         -59307.30
            SOIL ZONE =        5258718.98              SOIL ZONE =          -7823.87
     UNSATURATED ZONE =       -3327583.57       UNSATURATED ZONE =           6150.52
       SATURATED ZONE =         581434.66         SATURATED ZONE =          -2396.38

 OVERALL BUDGET ERROR =          84512.91           BUDGET ERROR =          -1774.17


  PERCENT DISCREPANCY =              0.65    PERCENT DISCREPANCY =             -2.76



1
 SUMMARY VOLUMETRIC BUDGET FOR GSFLOW 
 DATE: 04 14 1991              CUMULATIVE TIME STEP:      14
 MODFLOW STRESS PERIOD      8     CURRENT TIME STEP:     196     ITERATIONS:       6

 -----------------------------------------------------------------------------------

   CUMULATIVE VOLUMES               L**3   RATES FOR THIS TIME STEP           L**3/T
   ------------------                      ------------------------

                                     IN                                         IN
                                     --                                         --
        PRECIPITATION =        1.3018D+07          PRECIPITATION =                  
           STREAMFLOW =                               STREAMFLOW =                  
     GW BOUNDARY FLOW =             75.10       GW BOUNDARY FLOW =              1.16


                                    OUT                                        OUT
                                    ---                                        ---
   EVAPOTRANSPIRATION =        3054436.42     EVAPOTRANSPIRATION =          38933.10
           STREAMFLOW =        2818433.15             STREAMFLOW =          65310.86
     GW BOUNDARY FLOW =           6996.46       GW BOUNDARY FLOW =             35.49

   INFLOWS - OUTFLOWS =        7137945.81     INFLOWS - OUTFLOWS =        -104278.29
             --------                                   --------

 TOTAL STORAGE CHANGE =        7075801.72         STORAGE CHANGE =        -101444.48
       --------------                             --------------
         LAND SURFACE =        4519797.60           LAND SURFACE =        -171937.20
            SOIL ZONE =        5273790.12              SOIL ZONE =          66715.68
     UNSATURATED ZONE =       -3283703.94       UNSATURATED ZONE =           6052.49
       SATURATED ZONE =         565915.70         SATURATED ZONE =          -2275.50

 OVERALL BUDGET ERROR =          62144.09           BUDGET ERROR =          -2833.81


  PERCENT DISCREPANCY =              0.48    PERCENT DISCREPANCY =             -2.75



1
 SUMMARY VOLUMETRIC BUDGET FOR GSFLOW 
 DATE: 04 21 1991              CUMULATIVE TIME STEP:      21
 MODFLOW STRESS PERIOD      8     CURRENT TIME STEP:     203     ITERATIONS:       7

 -----------------------------------------------------------------------------------

   CUMULATIVE VOLUMES               L**3   RATES FOR THIS TIME STEP           L**3/T
   ------------------                      ------------------------

                                     IN                                         IN
                                     --                                         --
        PRECIPITATION =        1.3034D+07          PRECIPITATION =                  
           STREAMFLOW =                               STREAMFLOW =                  
     GW BOUNDARY FLOW =             83.36       GW BOUNDARY FLOW =              1.20


                                    OUT                                        OUT
                                    ---                                        ---
   EVAPOTRANSPIRATION =        3286109.38     EVAPOTRANSPIRATION =          43439.71
           STREAMFLOW =        3337812.20             STREAMFLOW =          87634.70
     GW BOUNDARY FLOW =           7245.29       GW BOUNDARY FLOW =             35.68

   INFLOWS - OUTFLOWS =        6402978.58     INFLOWS - OUTFLOWS =        -131108.90
             --------                                   --------

 TOTAL STORAGE CHANGE =        6373946.45         STORAGE CHANGE =        -125260.02
       --------------                             --------------
         LAND SURFACE =        3417717.42           LAND SURFACE =        -214591.82
            SOIL ZONE =        5640068.61              SOIL ZONE =          82508.57
     UNSATURATED ZONE =       -3234599.63       UNSATURATED ZONE =           8827.01
       SATURATED ZONE =         550757.46         SATURATED ZONE =          -2003.83

 OVERALL BUDGET ERROR =          29032.13           BUDGET ERROR =          -5848.88

  ***WARNING, FLUX RATES OFF > 3%

  PERCENT DISCREPANCY =              0.22    PERCENT DISCREPANCY =             -4.56



1
 SUMMARY VOLUMETRIC BUDGET FOR GSFLOW 
 DATE: 04 28 1991              CUMULATIVE TIME STEP:      28
 MODFLOW STRESS PERIOD      8     CURRENT TIME STEP:     210     ITERATIONS:       6

 -----------------------------------------------------------------------------------

   CUMULATIVE VOLUMES               L**3   RATES FOR THIS TIME STEP           L**3/T
   ------------------                      ------------------------

                                     IN                                         IN
                                     --                                         --
        PRECIPITATION =        1.3303D+07          PRECIPITATION =                  
           STREAMFLOW =                               STREAMFLOW =                  
     GW BOUNDARY FLOW =             91.89       GW BOUNDARY FLOW =              1.24


                                    OUT                                        OUT
                                    ---                                        ---
   EVAPOTRANSPIRATION =        3532960.19     EVAPOTRANSPIRATION =          55254.97
           STREAMFLOW =        3968213.75             STREAMFLOW =          86658.73
     GW BOUNDARY FLOW =           7494.80       GW BOUNDARY FLOW =             35.55

   INFLOWS - OUTFLOWS =        5794853.66     INFLOWS - OUTFLOWS =        -141948.01
             --------                                   --------

 TOTAL STORAGE CHANGE =        5820794.31         STORAGE CHANGE =        -133731.78
       --------------                             --------------
         LAND SURFACE =        2828492.52           LAND SURFACE =        -115203.82
            SOIL ZONE =        5625784.24              SOIL ZONE =         -24945.07
     UNSATURATED ZONE =       -3170973.69       UNSATURATED ZONE =           8360.03
       SATURATED ZONE =         537488.26         SATURATED ZONE =          -1942.98

 OVERALL BUDGET ERROR =         -25940.64           BUDGET ERROR =          -8216.24

  ***WARNING, FLUX RATES OFF > 3%

  PERCENT DISCREPANCY =             -0.19    PERCENT DISCREPANCY =             -5.96



1
 SUMMARY VOLUMETRIC BUDGET FOR GSFLOW 
 DATE: 05 05 1991              CUMULATIVE TIME STEP:       5
 MODFLOW STRESS PERIOD      9     CURRENT TIME STEP:     217     ITERATIONS:      80

 -----------------------------------------------------------------------------------

   CUMULATIVE VOLUMES               L**3   RATES FOR THIS TIME STEP           L**3/T
   ------------------                      ------------------------

                                     IN                                         IN
                                     --                                         --
        PRECIPITATION =        1.3510D+07          PRECIPITATION =                  
           STREAMFLOW =                               STREAMFLOW =                  
     GW BOUNDARY FLOW =            100.69       GW BOUNDARY FLOW =              1.27


                                    OUT                                        OUT
                                    ---                                        ---
   EVAPOTRANSPIRATION =        3881879.34     EVAPOTRANSPIRATION =          84776.36
           STREAMFLOW =        4536081.87             STREAMFLOW =          82610.98
     GW BOUNDARY FLOW =           7742.73       GW BOUNDARY FLOW =             35.37

   INFLOWS - OUTFLOWS =        5084104.88     INFLOWS - OUTFLOWS =        -167421.45
             --------                                   --------

 TOTAL STORAGE CHANGE =        5162875.06         STORAGE CHANGE =        -159936.96
       --------------                             --------------
         LAND SURFACE =        2164321.68           LAND SURFACE =        -169194.91
            SOIL ZONE =        5589382.27              SOIL ZONE =           2221.46
     UNSATURATED ZONE =       -3116906.22       UNSATURATED ZONE =           6772.00
       SATURATED ZONE =         526073.93         SATURATED ZONE =            264.43

 OVERALL BUDGET ERROR =         -78770.18           BUDGET ERROR =          -7484.49

  ***WARNING, FLUX RATES OFF > 3%

  PERCENT DISCREPANCY =             -0.58    PERCENT DISCREPANCY =             -4.57



1
 SUMMARY VOLUMETRIC BUDGET FOR GSFLOW 
 DATE: 05 12 1991              CUMULATIVE TIME STEP:      12
 MODFLOW STRESS PERIOD      9     CURRENT TIME STEP:     224     ITERATIONS:       6

 -----------------------------------------------------------------------------------

   CUMULATIVE VOLUMES               L**3   RATES FOR THIS TIME STEP           L**3/T
   ------------------                      ------------------------

                                     IN                                         IN
                                     --                                         --
        PRECIPITATION =        1.4029D+07          PRECIPITATION =                  
           STREAMFLOW =                               STREAMFLOW =                  
     GW BOUNDARY FLOW =            109.75       GW BOUNDARY FLOW =              1.31


                                    OUT                                        OUT
                                    ---                                        ---
   EVAPOTRANSPIRATION =        4251651.21     EVAPOTRANSPIRATION =          62578.10
           STREAMFLOW =        5095484.75             STREAMFLOW =          82945.80
     GW BOUNDARY FLOW =           7989.36       GW BOUNDARY FLOW =             35.19

   INFLOWS - OUTFLOWS =        4674206.58     INFLOWS - OUTFLOWS =        -145557.79
             --------                                   --------

 TOTAL STORAGE CHANGE =        4801994.48         STORAGE CHANGE =        -138528.15
       --------------                             --------------
         LAND SURFACE =        1719829.12           LAND SURFACE =        -195667.44
            SOIL ZONE =        5629244.46              SOIL ZONE =          51230.33
     UNSATURATED ZONE =       -3060321.29       UNSATURATED ZONE =           7801.55
       SATURATED ZONE =         513238.33         SATURATED ZONE =          -1892.65

 OVERALL BUDGET ERROR =        -127787.90           BUDGET ERROR =          -7029.65

  ***WARNING, FLUX RATES OFF > 3%

  PERCENT DISCREPANCY =             -0.91    PERCENT DISCREPANCY =             -4.95



1
 SUMMARY VOLUMETRIC BUDGET FOR GSFLOW 
 DATE: 05 19 1991              CUMULATIVE TIME STEP:      19
 MODFLOW STRESS PERIOD      9     CURRENT TIME STEP:     231     ITERATIONS:       9

 -----------------------------------------------------------------------------------

   CUMULATIVE VOLUMES               L**3   RATES FOR THIS TIME STEP           L**3/T
   ------------------                      ------------------------

                                     IN                                         IN
                                     --                                         --
        PRECIPITATION =        1.4365D+07          PRECIPITATION =                  
           STREAMFLOW =                               STREAMFLOW =                  
     GW BOUNDARY FLOW =            119.08       GW BOUNDARY FLOW =              1.35


                                    OUT                                        OUT
                                    ---                                        ---
   EVAPOTRANSPIRATION =        4651568.31     EVAPOTRANSPIRATION =          17977.42
           STREAMFLOW =        5649938.66             STREAMFLOW =          71448.12
     GW BOUNDARY FLOW =           8234.72       GW BOUNDARY FLOW =             34.88

   INFLOWS - OUTFLOWS =        4055755.71     INFLOWS - OUTFLOWS =         -89459.06
             --------                                   --------

 TOTAL STORAGE CHANGE =        4233581.81         STORAGE CHANGE =         -82240.10
       --------------                             --------------
         LAND SURFACE =        1168636.63           LAND SURFACE =         -21196.61
            SOIL ZONE =        5568856.92              SOIL ZONE =         -65903.37
     UNSATURATED ZONE =       -3005972.72       UNSATURATED ZONE =           6690.58
       SATURATED ZONE =         502056.63         SATURATED ZONE =          -1830.77

 OVERALL BUDGET ERROR =        -177826.10           BUDGET ERROR =          -7218.96

  ***WARNING, FLUX RATES OFF > 3%

  PERCENT DISCREPANCY =             -1.23    PERCENT DISCREPANCY =             -8.41



1
 SUMMARY VOLUMETRIC BUDGET FOR GSFLOW 
 DATE: 05 26 1991              CUMULATIVE TIME STEP:      26
 MODFLOW STRESS PERIOD      9     CURRENT TIME STEP:     238     ITERATIONS:       8

 -----------------------------------------------------------------------------------

   CUMULATIVE VOLUMES               L**3   RATES FOR THIS TIME STEP           L**3/T
   ------------------                      ------------------------

                                     IN                                         IN
                                     --                                         --
        PRECIPITATION =        1.4426D+07          PRECIPITATION =                  
           STREAMFLOW =                               STREAMFLOW =                  
     GW BOUNDARY FLOW =            128.68       GW BOUNDARY FLOW =              1.39


                                    OUT                                        OUT
                                    ---                                        ---
   EVAPOTRANSPIRATION =        5298597.46     EVAPOTRANSPIRATION =          71053.23
           STREAMFLOW =        6103599.18             STREAMFLOW =          52287.69
     GW BOUNDARY FLOW =           8477.55       GW BOUNDARY FLOW =             34.44

   INFLOWS - OUTFLOWS =        3015952.10     INFLOWS - OUTFLOWS =        -123373.97
             --------                                   --------

 TOTAL STORAGE CHANGE =        3235728.95         STORAGE CHANGE =        -118783.31
       --------------                             --------------
         LAND SURFACE =         620424.11           LAND SURFACE =         -40812.89
            SOIL ZONE =        5094071.98              SOIL ZONE =         -79248.75
     UNSATURATED ZONE =       -2966639.38       UNSATURATED ZONE =           3514.96
       SATURATED ZONE =         487867.38         SATURATED ZONE =          -2236.70

 OVERALL BUDGET ERROR =        -219776.85           BUDGET ERROR =          -4590.66

  ***WARNING, FLUX RATES OFF > 3%

  PERCENT DISCREPANCY =             -1.51    PERCENT DISCREPANCY =             -3.79



1
 SUMMARY VOLUMETRIC BUDGET FOR GSFLOW 
 DATE: 06 02 1991              CUMULATIVE TIME STEP:       2
 MODFLOW STRESS PERIOD     10     CURRENT TIME STEP:     245     ITERATIONS:       8

 -----------------------------------------------------------------------------------

   CUMULATIVE VOLUMES               L**3   RATES FOR THIS TIME STEP           L**3/T
   ------------------                      ------------------------

                                     IN                                         IN
                                     --                                         --
        PRECIPITATION =        1.4671D+07          PRECIPITATION =                  
           STREAMFLOW =                               STREAMFLOW =                  
     GW BOUNDARY FLOW =            138.55       GW BOUNDARY FLOW =              1.43


                                    OUT                                        OUT
                                    ---                                        ---
   EVAPOTRANSPIRATION =        5843282.02     EVAPOTRANSPIRATION =         119332.66
           STREAMFLOW =        6434285.93             STREAMFLOW =          43417.87
     GW BOUNDARY FLOW =           8717.42       GW BOUNDARY FLOW =             34.14

   INFLOWS - OUTFLOWS =        2384827.99     INFLOWS - OUTFLOWS =        -162783.24
             --------                                   --------

 TOTAL STORAGE CHANGE =        2629718.83         STORAGE CHANGE =        -158959.61
       --------------                             --------------
         LAND SURFACE =         358942.21           LAND SURFACE =         -46420.51
            SOIL ZONE =        4751702.58              SOIL ZONE =        -111465.28
     UNSATURATED ZONE =       -2952404.06       UNSATURATED ZONE =           1427.49
       SATURATED ZONE =         471472.68         SATURATED ZONE =          -2501.40

 OVERALL BUDGET ERROR =        -244890.84           BUDGET ERROR =          -3823.63


  PERCENT DISCREPANCY =             -1.66    PERCENT DISCREPANCY =             -2.38



1
 SUMMARY VOLUMETRIC BUDGET FOR GSFLOW 
 DATE: 06 09 1991              CUMULATIVE TIME STEP:       9
 MODFLOW STRESS PERIOD     10     CURRENT TIME STEP:     252     ITERATIONS:       7

 -----------------------------------------------------------------------------------

   CUMULATIVE VOLUMES               L**3   RATES FOR THIS TIME STEP           L**3/T
   ------------------                      ------------------------

                                     IN                                         IN
                                     --                                         --
        PRECIPITATION =        1.4671D+07          PRECIPITATION =                  
           STREAMFLOW =                               STREAMFLOW =                  
     GW BOUNDARY FLOW =            148.71       GW BOUNDARY FLOW =              1.47


                                    OUT                                        OUT
                                    ---                                        ---
   EVAPOTRANSPIRATION =        6559277.95     EVAPOTRANSPIRATION =         166447.12
           STREAMFLOW =        6677156.30             STREAMFLOW =          29250.20
     GW BOUNDARY FLOW =           8954.74       GW BOUNDARY FLOW =             33.74

   INFLOWS - OUTFLOWS =        1425734.52     INFLOWS - OUTFLOWS =        -195729.59
             --------                                   --------

 TOTAL STORAGE CHANGE =        1686998.55         STORAGE CHANGE =        -193736.77
       --------------                             --------------
         LAND SURFACE =         151647.51           LAND SURFACE =         -33724.69
            SOIL ZONE =        4041121.13              SOIL ZONE =        -154784.63
     UNSATURATED ZONE =       -2956779.80       UNSATURATED ZONE =          -1968.93
       SATURATED ZONE =         451003.71         SATURATED ZONE =          -3258.62

 OVERALL BUDGET ERROR =        -261264.03           BUDGET ERROR =          -1992.82


  PERCENT DISCREPANCY =             -1.77    PERCENT DISCREPANCY =             -1.02



1
 SUMMARY VOLUMETRIC BUDGET FOR GSFLOW 
 DATE: 06 16 1991              CUMULATIVE TIME STEP:      16
 MODFLOW STRESS PERIOD     10     CURRENT TIME STEP:     259     ITERATIONS:       6

 -----------------------------------------------------------------------------------

   CUMULATIVE VOLUMES               L**3   RATES FOR THIS TIME STEP           L**3/T
   ------------------                      ------------------------

                                     IN                                         IN
                                     --                                         --
        PRECIPITATION =        1.4671D+07          PRECIPITATION =                  
           STREAMFLOW =                               STREAMFLOW =                  
     GW BOUNDARY FLOW =            159.16       GW BOUNDARY FLOW =              1.51


                                    OUT                                        OUT
                                    ---                                        ---
   EVAPOTRANSPIRATION =        7518410.79     EVAPOTRANSPIRATION =         108523.32
           STREAMFLOW =        6828646.18             STREAMFLOW =          18172.80
     GW BOUNDARY FLOW =           9188.09       GW BOUNDARY FLOW =             33.20

   INFLOWS - OUTFLOWS =         314888.90     INFLOWS - OUTFLOWS =        -126727.80
             --------                                   --------

 TOTAL STORAGE CHANGE =         585291.48         STORAGE CHANGE =        -125691.17
       --------------                             --------------
         LAND SURFACE =          42141.08           LAND SURFACE =          -7293.27
            SOIL ZONE =        3118753.58              SOIL ZONE =        -104396.43
     UNSATURATED ZONE =       -2998837.61       UNSATURATED ZONE =          -9360.08
       SATURATED ZONE =         423227.84         SATURATED ZONE =          -4641.48

 OVERALL BUDGET ERROR =        -270402.58           BUDGET ERROR =          -1036.63


  PERCENT DISCREPANCY =             -1.83    PERCENT DISCREPANCY =             -0.82



1
 SUMMARY VOLUMETRIC BUDGET FOR GSFLOW 
 DATE: 06 23 1991              CUMULATIVE TIME STEP:      23
 MODFLOW STRESS PERIOD     10     CURRENT TIME STEP:     266     ITERATIONS:       7

 -----------------------------------------------------------------------------------

   CUMULATIVE VOLUMES               L**3   RATES FOR THIS TIME STEP           L**3/T
   ------------------                      ------------------------

                                     IN                                         IN
                                     --                                         --
        PRECIPITATION =        1.4671D+07          PRECIPITATION =                  
           STREAMFLOW =                               STREAMFLOW =                  
     GW BOUNDARY FLOW =            169.92       GW BOUNDARY FLOW =              1.56


                                    OUT                                        OUT
                                    ---                                        ---
   EVAPOTRANSPIRATION =        7999245.37     EVAPOTRANSPIRATION =          34605.96
           STREAMFLOW =        6941358.65             STREAMFLOW =          15569.23
     GW BOUNDARY FLOW =           9419.60       GW BOUNDARY FLOW =             33.03

   INFLOWS - OUTFLOWS =        -278878.90     INFLOWS - OUTFLOWS =         -50206.66
             --------                                   --------

 TOTAL STORAGE CHANGE =          -3771.84         STORAGE CHANGE =         -49862.83
       --------------                             --------------
         LAND SURFACE =          16911.50           LAND SURFACE =          -1658.21
            SOIL ZONE =        2663374.20              SOIL ZONE =         -34155.43
     UNSATURATED ZONE =       -3069826.40       UNSATURATED ZONE =          -8586.64
       SATURATED ZONE =         385761.67         SATURATED ZONE =          -5462.65

 OVERALL BUDGET ERROR =        -275107.06           BUDGET ERROR =           -343.83


  PERCENT DISCREPANCY =             -1.86    PERCENT DISCREPANCY =             -0.69



1
 SUMMARY VOLUMETRIC BUDGET FOR GSFLOW 
 DATE: 06 30 1991              CUMULATIVE TIME STEP:      30
 MODFLOW STRESS PERIOD     10     CURRENT TIME STEP:     273     ITERATIONS:       8

 -----------------------------------------------------------------------------------

[...]
                                    ---                                        ---
   EVAPOTRANSPIRATION =        7.3632D+07     EVAPOTRANSPIRATION =          85006.00
           STREAMFLOW =        7.5258D+07             STREAMFLOW =          13433.09
     GW BOUNDARY FLOW =          51017.82       GW BOUNDARY FLOW =             24.37

   INFLOWS - OUTFLOWS =       -1.5427D+07     INFLOWS - OUTFLOWS =         -98460.11
             --------                                   --------

 TOTAL STORAGE CHANGE =       -1.0551D+07         STORAGE CHANGE =         -97941.30
       --------------                             --------------
         LAND SURFACE =         524381.77           LAND SURFACE =         -24592.44
            SOIL ZONE =        2171892.12              SOIL ZONE =         -59121.62
     UNSATURATED ZONE =          62120.41       UNSATURATED ZONE =          -9179.55
       SATURATED ZONE =       -1.3309D+07         SATURATED ZONE =          -5047.81

 OVERALL BUDGET ERROR =       -4876523.26           BUDGET ERROR =           -518.82


  PERCENT DISCREPANCY =             -3.33    PERCENT DISCREPANCY =             -0.53



1
 SUMMARY VOLUMETRIC BUDGET FOR GSFLOW 
 DATE: 09 03 1995              CUMULATIVE TIME STEP:       3
 MODFLOW STRESS PERIOD     61     CURRENT TIME STEP:    1799     ITERATIONS:       6

 -----------------------------------------------------------------------------------

   CUMULATIVE VOLUMES               L**3   RATES FOR THIS TIME STEP           L**3/T
   ------------------                      ------------------------

                                     IN                                         IN
                                     --                                         --
        PRECIPITATION =        1.3351D+08          PRECIPITATION =                  
           STREAMFLOW =                               STREAMFLOW =                  
     GW BOUNDARY FLOW =           5616.12       GW BOUNDARY FLOW =              3.43


                                    OUT                                        OUT
                                    ---                                        ---
   EVAPOTRANSPIRATION =        7.4207D+07     EVAPOTRANSPIRATION =          77259.42
           STREAMFLOW =        7.5340D+07             STREAMFLOW =          10456.05
     GW BOUNDARY FLOW =          51187.76       GW BOUNDARY FLOW =             24.22

   INFLOWS - OUTFLOWS =       -1.6084D+07     INFLOWS - OUTFLOWS =         -87736.26
             --------                                   --------

 TOTAL STORAGE CHANGE =       -1.1205D+07         STORAGE CHANGE =         -87580.28
       --------------                             --------------
         LAND SURFACE =         372015.97           LAND SURFACE =         -19446.39
            SOIL ZONE =        1778156.03              SOIL ZONE =         -52191.60
     UNSATURATED ZONE =          -3181.23       UNSATURATED ZONE =          -9373.89
       SATURATED ZONE =       -1.3352D+07         SATURATED ZONE =          -6568.51

 OVERALL BUDGET ERROR =       -4879166.14           BUDGET ERROR =           -155.98


  PERCENT DISCREPANCY =             -3.32    PERCENT DISCREPANCY =             -0.18



1
 SUMMARY VOLUMETRIC BUDGET FOR GSFLOW 
 DATE: 09 10 1995              CUMULATIVE TIME STEP:      10
 MODFLOW STRESS PERIOD     61     CURRENT TIME STEP:    1806     ITERATIONS:       7

 -----------------------------------------------------------------------------------

   CUMULATIVE VOLUMES               L**3   RATES FOR THIS TIME STEP           L**3/T
   ------------------                      ------------------------

                                     IN                                         IN
                                     --                                         --
        PRECIPITATION =        1.3351D+08          PRECIPITATION =                  
           STREAMFLOW =                               STREAMFLOW =                  
     GW BOUNDARY FLOW =           5640.54       GW BOUNDARY FLOW =              3.53


                                    OUT                                        OUT
                                    ---                                        ---
   EVAPOTRANSPIRATION =        7.4642D+07     EVAPOTRANSPIRATION =          58189.98
           STREAMFLOW =        7.5409D+07             STREAMFLOW =           9406.93
     GW BOUNDARY FLOW =          51357.23       GW BOUNDARY FLOW =             24.18

   INFLOWS - OUTFLOWS =       -1.6589D+07     INFLOWS - OUTFLOWS =         -67617.56
             --------                                   --------

 TOTAL STORAGE CHANGE =       -1.1708D+07         STORAGE CHANGE =         -67463.38
       --------------                             --------------
         LAND SURFACE =         271470.12           LAND SURFACE =         -12572.77
            SOIL ZONE =        1480802.45              SOIL ZONE =         -39594.31
     UNSATURATED ZONE =         -65586.01       UNSATURATED ZONE =          -8767.38
       SATURATED ZONE =       -1.3395D+07         SATURATED ZONE =          -6529.04

 OVERALL BUDGET ERROR =       -4880249.99           BUDGET ERROR =           -154.18


  PERCENT DISCREPANCY =             -3.31    PERCENT DISCREPANCY =             -0.23



1
 SUMMARY VOLUMETRIC BUDGET FOR GSFLOW 
 DATE: 09 17 1995              CUMULATIVE TIME STEP:      17
 MODFLOW STRESS PERIOD     61     CURRENT TIME STEP:    1813     ITERATIONS:       7

 -----------------------------------------------------------------------------------

   CUMULATIVE VOLUMES               L**3   RATES FOR THIS TIME STEP           L**3/T
   ------------------                      ------------------------

                                     IN                                         IN
                                     --                                         --
        PRECIPITATION =        1.3351D+08          PRECIPITATION =                  
           STREAMFLOW =                               STREAMFLOW =                  
     GW BOUNDARY FLOW =           5665.62       GW BOUNDARY FLOW =              3.62


                                    OUT                                        OUT
                                    ---                                        ---
   EVAPOTRANSPIRATION =        7.5116D+07     EVAPOTRANSPIRATION =          54632.23
           STREAMFLOW =        7.5465D+07             STREAMFLOW =           7819.04
     GW BOUNDARY FLOW =          51525.71       GW BOUNDARY FLOW =             24.08

   INFLOWS - OUTFLOWS =       -1.7119D+07     INFLOWS - OUTFLOWS =         -62471.72
             --------                                   --------

 TOTAL STORAGE CHANGE =       -1.2237D+07         STORAGE CHANGE =         -62302.87
       --------------                             --------------
         LAND SURFACE =         180685.70           LAND SURFACE =          -9600.58
            SOIL ZONE =        1168147.87              SOIL ZONE =         -35839.33
     UNSATURATED ZONE =        -131526.99       UNSATURATED ZONE =          -9247.20
       SATURATED ZONE =       -1.3454D+07         SATURATED ZONE =          -7615.87

 OVERALL BUDGET ERROR =       -4881631.40           BUDGET ERROR =           -168.85


  PERCENT DISCREPANCY =             -3.29    PERCENT DISCREPANCY =             -0.27



1
 SUMMARY VOLUMETRIC BUDGET FOR GSFLOW 
 DATE: 09 24 1995              CUMULATIVE TIME STEP:      24
 MODFLOW STRESS PERIOD     61     CURRENT TIME STEP:    1820     ITERATIONS:       7

 -----------------------------------------------------------------------------------

   CUMULATIVE VOLUMES               L**3   RATES FOR THIS TIME STEP           L**3/T
   ------------------                      ------------------------

                                     IN                                         IN
                                     --                                         --
        PRECIPITATION =        1.3351D+08          PRECIPITATION =                  
           STREAMFLOW =                               STREAMFLOW =                  
     GW BOUNDARY FLOW =           5691.35       GW BOUNDARY FLOW =              3.71


                                    OUT                                        OUT
                                    ---                                        ---
   EVAPOTRANSPIRATION =        7.5456D+07     EVAPOTRANSPIRATION =          34959.00
           STREAMFLOW =        7.5518D+07             STREAMFLOW =           8050.14
     GW BOUNDARY FLOW =          51694.14       GW BOUNDARY FLOW =             24.10

   INFLOWS - OUTFLOWS =       -1.7511D+07     INFLOWS - OUTFLOWS =         -43029.53
             --------                                   --------

 TOTAL STORAGE CHANGE =       -1.2629D+07         STORAGE CHANGE =         -42901.94
       --------------                             --------------
         LAND SURFACE =         125692.08           LAND SURFACE =          -5511.04
            SOIL ZONE =         947222.99              SOIL ZONE =         -22526.72
     UNSATURATED ZONE =        -192376.10       UNSATURATED ZONE =          -8211.89
       SATURATED ZONE =       -1.3509D+07         SATURATED ZONE =          -6652.40

 OVERALL BUDGET ERROR =       -4882765.12           BUDGET ERROR =           -127.59


  PERCENT DISCREPANCY =             -3.29    PERCENT DISCREPANCY =             -0.30



1
 SUMMARY VOLUMETRIC BUDGET FOR GSFLOW 
 DATE: 10 01 1995              CUMULATIVE TIME STEP:       1
 MODFLOW STRESS PERIOD     62     CURRENT TIME STEP:    1827     ITERATIONS:       6

 -----------------------------------------------------------------------------------

   CUMULATIVE VOLUMES               L**3   RATES FOR THIS TIME STEP           L**3/T
   ------------------                      ------------------------

                                     IN                                         IN
                                     --                                         --
        PRECIPITATION =        1.3351D+08          PRECIPITATION =                  
           STREAMFLOW =                               STREAMFLOW =                  
     GW BOUNDARY FLOW =           5717.68       GW BOUNDARY FLOW =              3.80


                                    OUT                                        OUT
                                    ---                                        ---
   EVAPOTRANSPIRATION =        7.5594D+07     EVAPOTRANSPIRATION =          20790.35
           STREAMFLOW =        7.5580D+07             STREAMFLOW =           8723.67
     GW BOUNDARY FLOW =          51863.34       GW BOUNDARY FLOW =             24.17

   INFLOWS - OUTFLOWS =       -1.7712D+07     INFLOWS - OUTFLOWS =         -29534.39
             --------                                   --------

 TOTAL STORAGE CHANGE =       -1.2828D+07         STORAGE CHANGE =         -29445.53
       --------------                             --------------
         LAND SURFACE =         102504.93           LAND SURFACE =          -2862.19
            SOIL ZONE =         860409.47              SOIL ZONE =         -13441.64
     UNSATURATED ZONE =        -245616.21       UNSATURATED ZONE =          -7489.62
       SATURATED ZONE =       -1.3546D+07         SATURATED ZONE =          -5652.19

 OVERALL BUDGET ERROR =       -4883364.65           BUDGET ERROR =            -88.86


  PERCENT DISCREPANCY =             -3.28    PERCENT DISCREPANCY =             -0.30



1
 SUMMARY VOLUMETRIC BUDGET FOR GSFLOW 
 DATE: 10 08 1995              CUMULATIVE TIME STEP:       8
 MODFLOW STRESS PERIOD     62     CURRENT TIME STEP:    1834     ITERATIONS:       6

 -----------------------------------------------------------------------------------

   CUMULATIVE VOLUMES               L**3   RATES FOR THIS TIME STEP           L**3/T
   ------------------                      ------------------------

                                     IN                                         IN
                                     --                                         --
        PRECIPITATION =        1.3351D+08          PRECIPITATION =                  
           STREAMFLOW =                               STREAMFLOW =                  
     GW BOUNDARY FLOW =           5744.56       GW BOUNDARY FLOW =              3.87


                                    OUT                                        OUT
                                    ---                                        ---
   EVAPOTRANSPIRATION =        7.5755D+07     EVAPOTRANSPIRATION =          20177.84
           STREAMFLOW =        7.5638D+07             STREAMFLOW =           8419.11
     GW BOUNDARY FLOW =          52032.43       GW BOUNDARY FLOW =             24.17

   INFLOWS - OUTFLOWS =       -1.7932D+07     INFLOWS - OUTFLOWS =         -28617.24
             --------                                   --------

 TOTAL STORAGE CHANGE =       -1.3048D+07         STORAGE CHANGE =         -28516.86
       --------------                             --------------
         LAND SURFACE =          81951.52           LAND SURFACE =          -2502.54
            SOIL ZONE =         757854.70              SOIL ZONE =         -12530.53
     UNSATURATED ZONE =        -297606.56       UNSATURATED ZONE =          -7250.96
       SATURATED ZONE =       -1.3590D+07         SATURATED ZONE =          -6232.94

 OVERALL BUDGET ERROR =       -4884126.96           BUDGET ERROR =           -100.38


  PERCENT DISCREPANCY =             -3.28    PERCENT DISCREPANCY =             -0.35



1
 SUMMARY VOLUMETRIC BUDGET FOR GSFLOW 
 DATE: 10 15 1995              CUMULATIVE TIME STEP:      15
 MODFLOW STRESS PERIOD     62     CURRENT TIME STEP:    1841     ITERATIONS:       6

 -----------------------------------------------------------------------------------

   CUMULATIVE VOLUMES               L**3   RATES FOR THIS TIME STEP           L**3/T
   ------------------                      ------------------------

                                     IN                                         IN
                                     --                                         --
        PRECIPITATION =        1.3351D+08          PRECIPITATION =                  
           STREAMFLOW =                               STREAMFLOW =                  
     GW BOUNDARY FLOW =           5771.96       GW BOUNDARY FLOW =              3.94


                                    OUT                                        OUT
                                    ---                                        ---
   EVAPOTRANSPIRATION =        7.5914D+07     EVAPOTRANSPIRATION =          25349.77
           STREAMFLOW =        7.5695D+07             STREAMFLOW =           7804.26
     GW BOUNDARY FLOW =          52201.44       GW BOUNDARY FLOW =             24.13

   INFLOWS - OUTFLOWS =       -1.8147D+07     INFLOWS - OUTFLOWS =         -33174.21
             --------                                   --------

 TOTAL STORAGE CHANGE =       -1.3262D+07         STORAGE CHANGE =         -33050.48
       --------------                             --------------
         LAND SURFACE =          63226.18           LAND SURFACE =          -2687.15
            SOIL ZONE =         661775.61              SOIL ZONE =         -15230.62
     UNSATURATED ZONE =        -349480.88       UNSATURATED ZONE =          -7635.68
       SATURATED ZONE =       -1.3637D+07         SATURATED ZONE =          -7497.14

 OVERALL BUDGET ERROR =       -4884926.74           BUDGET ERROR =           -123.73


  PERCENT DISCREPANCY =             -3.27    PERCENT DISCREPANCY =             -0.37



1
 SUMMARY VOLUMETRIC BUDGET FOR GSFLOW 
 DATE: 10 22 1995              CUMULATIVE TIME STEP:      22
 MODFLOW STRESS PERIOD     62     CURRENT TIME STEP:    1848     ITERATIONS:       7

 -----------------------------------------------------------------------------------

   CUMULATIVE VOLUMES               L**3   RATES FOR THIS TIME STEP           L**3/T
   ------------------                      ------------------------

                                     IN                                         IN
                                     --                                         --
        PRECIPITATION =        1.3351D+08          PRECIPITATION =                  
           STREAMFLOW =                               STREAMFLOW =                  
     GW BOUNDARY FLOW =           5799.84       GW BOUNDARY FLOW =              4.01


                                    OUT                                        OUT
                                    ---                                        ---
   EVAPOTRANSPIRATION =        7.6056D+07     EVAPOTRANSPIRATION =           5917.98
           STREAMFLOW =        7.5751D+07             STREAMFLOW =           8979.61
     GW BOUNDARY FLOW =          52370.42       GW BOUNDARY FLOW =             24.23

   INFLOWS - OUTFLOWS =       -1.8345D+07     INFLOWS - OUTFLOWS =         -14917.81
             --------                                   --------

 TOTAL STORAGE CHANGE =       -1.3459D+07         STORAGE CHANGE =         -14847.23
       --------------                             --------------
         LAND SURFACE =          49141.37           LAND SURFACE =           -667.02
            SOIL ZONE =         577969.85              SOIL ZONE =          -3465.82
     UNSATURATED ZONE =        -399463.35       UNSATURATED ZONE =          -6292.66
       SATURATED ZONE =       -1.3687D+07         SATURATED ZONE =          -4421.84

 OVERALL BUDGET ERROR =       -4885805.57           BUDGET ERROR =            -70.58


  PERCENT DISCREPANCY =             -3.27    PERCENT DISCREPANCY =             -0.47



1
 SUMMARY VOLUMETRIC BUDGET FOR GSFLOW 
 DATE: 10 29 1995              CUMULATIVE TIME STEP:      29
 MODFLOW STRESS PERIOD     62     CURRENT TIME STEP:    1855     ITERATIONS:       5

 -----------------------------------------------------------------------------------

   CUMULATIVE VOLUMES               L**3   RATES FOR THIS TIME STEP           L**3/T
   ------------------                      ------------------------

                                     IN                                         IN
                                     --                                         --
        PRECIPITATION =        1.3351D+08          PRECIPITATION =                  
           STREAMFLOW =                               STREAMFLOW =                  
     GW BOUNDARY FLOW =           5828.15       GW BOUNDARY FLOW =              4.07


                                    OUT                                        OUT
                                    ---                                        ---
   EVAPOTRANSPIRATION =        7.6142D+07     EVAPOTRANSPIRATION =          15005.28
           STREAMFLOW =        7.5810D+07             STREAMFLOW =           8113.59
     GW BOUNDARY FLOW =          52539.80       GW BOUNDARY FLOW =             24.17

   INFLOWS - OUTFLOWS =       -1.8490D+07     INFLOWS - OUTFLOWS =         -23138.98
             --------                                   --------

 TOTAL STORAGE CHANGE =       -1.3604D+07         STORAGE CHANGE =         -23001.54
       --------------                             --------------
         LAND SURFACE =          42922.70           LAND SURFACE =          -1382.99
            SOIL ZONE =         527969.59              SOIL ZONE =          -8254.49
     UNSATURATED ZONE =        -445132.00       UNSATURATED ZONE =          -6508.22
       SATURATED ZONE =       -1.3729D+07         SATURATED ZONE =          -6855.96

 OVERALL BUDGET ERROR =       -4886637.18           BUDGET ERROR =           -137.43


  PERCENT DISCREPANCY =             -3.27    PERCENT DISCREPANCY =             -0.60



