1
 SUMMARY VOLUMETRIC BUDGET FOR GSFLOW 
 DATE: 10 07 1990              CUMULATIVE TIME STEP:       7
 MODFLOW STRESS PERIOD      2     CURRENT TIME STEP:       7     ITERATIONS:       7

 -----------------------------------------------------------------------------------

   CUMULATIVE VOLUMES               L**3   RATES FOR THIS TIME STEP           L**3/T
   ------------------                      ------------------------

                                     IN                                         IN
                                     --                                         --
        PRECIPITATION =                            PRECIPITATION =                  
           STREAMFLOW =                               STREAMFLOW =                  
     GW BOUNDARY FLOW =                         GW BOUNDARY FLOW =                  


                                    OUT                                        OUT
                                    ---                                        ---
   EVAPOTRANSPIRATION =         385029.62     EVAPOTRANSPIRATION =          11801.28
           STREAMFLOW =          45660.69             STREAMFLOW =           8128.64
     GW BOUNDARY FLOW =            252.78       GW BOUNDARY FLOW =             36.30

   INFLOWS - OUTFLOWS =        -430943.09     INFLOWS - OUTFLOWS =         -19966.22
             --------                                   --------

 TOTAL STORAGE CHANGE =        -429364.81         STORAGE CHANGE =         -19938.66
       --------------                             --------------
         LAND SURFACE =                             LAND SURFACE =                  
            SOIL ZONE =         -33378.23              SOIL ZONE =           -943.72
     UNSATURATED ZONE =        -502802.11       UNSATURATED ZONE =         -33592.28
       SATURATED ZONE =         106815.53         SATURATED ZONE =          14597.35

 OVERALL BUDGET ERROR =          -1578.28           BUDGET ERROR =            -27.57


  PERCENT DISCREPANCY =             -0.37    PERCENT DISCREPANCY =             -0.14



1
 SUMMARY VOLUMETRIC BUDGET FOR GSFLOW 
 DATE: 10 14 1990              CUMULATIVE TIME STEP:      14
 MODFLOW STRESS PERIOD      2     CURRENT TIME STEP:      14     ITERATIONS:       6

 -----------------------------------------------------------------------------------

   CUMULATIVE VOLUMES               L**3   RATES FOR THIS TIME STEP           L**3/T
   ------------------                      ------------------------

                                     IN                                         IN
                                     --                                         --
        PRECIPITATION =                            PRECIPITATION =                  
           STREAMFLOW =                               STREAMFLOW =                  
     GW BOUNDARY FLOW =                         GW BOUNDARY FLOW =                  


                                    OUT                                        OUT
                                    ---                                        ---
   EVAPOTRANSPIRATION =         665231.81     EVAPOTRANSPIRATION =          42297.84
           STREAMFLOW =         100373.70             STREAMFLOW =           7413.55
     GW BOUNDARY FLOW =            506.61       GW BOUNDARY FLOW =             36.24

   INFLOWS - OUTFLOWS =        -766112.12     INFLOWS - OUTFLOWS =         -49747.63
             --------                                   --------

 TOTAL STORAGE CHANGE =        -764174.06         STORAGE CHANGE =         -49712.85
       --------------                             --------------
         LAND SURFACE =                             LAND SURFACE =                  
            SOIL ZONE =         -58187.20              SOIL ZONE =          -4381.89
     UNSATURATED ZONE =        -877807.89       UNSATURATED ZONE =         -52081.85
       SATURATED ZONE =         171821.03         SATURATED ZONE =           6750.89

 OVERALL BUDGET ERROR =          -1938.06           BUDGET ERROR =            -34.79


  PERCENT DISCREPANCY =             -0.25    PERCENT DISCREPANCY =             -0.07



1
 SUMMARY VOLUMETRIC BUDGET FOR GSFLOW 
 DATE: 10 21 1990              CUMULATIVE TIME STEP:      21
 MODFLOW STRESS PERIOD      2     CURRENT TIME STEP:      21     ITERATIONS:       6

 -----------------------------------------------------------------------------------

   CUMULATIVE VOLUMES               L**3   RATES FOR THIS TIME STEP           L**3/T
   ------------------                      ------------------------

                                     IN                                         IN
                                     --                                         --
        PRECIPITATION =         188432.87          PRECIPITATION =                  
           STREAMFLOW =                               STREAMFLOW =                  
     GW BOUNDARY FLOW =                         GW BOUNDARY FLOW =                  


                                    OUT                                        OUT
                                    ---                                        ---
   EVAPOTRANSPIRATION =         815501.42     EVAPOTRANSPIRATION =          41723.79
           STREAMFLOW =         163148.47             STREAMFLOW =          10150.74
     GW BOUNDARY FLOW =            760.80       GW BOUNDARY FLOW =             36.37

   INFLOWS - OUTFLOWS =        -790977.81     INFLOWS - OUTFLOWS =         -51910.91
             --------                                   --------

 TOTAL STORAGE CHANGE =        -790192.37         STORAGE CHANGE =         -51905.86
       --------------                             --------------
         LAND SURFACE =          18885.57           LAND SURFACE =         -43558.49
            SOIL ZONE =          47353.76              SOIL ZONE =           2011.83
     UNSATURATED ZONE =       -1091564.25       UNSATURATED ZONE =         -21330.93
       SATURATED ZONE =         235132.55         SATURATED ZONE =          10971.72

 OVERALL BUDGET ERROR =           -785.45           BUDGET ERROR =             -5.04


  PERCENT DISCREPANCY =             -0.08    PERCENT DISCREPANCY =             -0.01



1
 SUMMARY VOLUMETRIC BUDGET FOR GSFLOW 
 DATE: 10 28 1990              CUMULATIVE TIME STEP:      28
 MODFLOW STRESS PERIOD      2     CURRENT TIME STEP:      28     ITERATIONS:       6

 -----------------------------------------------------------------------------------

   CUMULATIVE VOLUMES               L**3   RATES FOR THIS TIME STEP           L**3/T
   ------------------                      ------------------------

                                     IN                                         IN
                                     --                                         --
        PRECIPITATION =         188432.87          PRECIPITATION =                  
           STREAMFLOW =                               STREAMFLOW =                  
     GW BOUNDARY FLOW =                         GW BOUNDARY FLOW =                  


                                    OUT                                        OUT
                                    ---                                        ---
   EVAPOTRANSPIRATION =         943913.11     EVAPOTRANSPIRATION =          11828.84
           STREAMFLOW =         224590.25             STREAMFLOW =           8922.63
     GW BOUNDARY FLOW =           1013.98       GW BOUNDARY FLOW =             36.12

   INFLOWS - OUTFLOWS =        -981084.47     INFLOWS - OUTFLOWS =         -20787.59
             --------                                   --------

 TOTAL STORAGE CHANGE =        -980208.89         STORAGE CHANGE =         -20780.38
       --------------                             --------------
         LAND SURFACE =                             LAND SURFACE =                  
            SOIL ZONE =          18302.11              SOIL ZONE =          -3431.00
     UNSATURATED ZONE =       -1274936.13       UNSATURATED ZONE =         -23234.99
       SATURATED ZONE =         276425.13         SATURATED ZONE =           5885.61

 OVERALL BUDGET ERROR =           -875.58           BUDGET ERROR =             -7.21


  PERCENT DISCREPANCY =             -0.07    PERCENT DISCREPANCY =             -0.03



1
 SUMMARY VOLUMETRIC BUDGET FOR GSFLOW 
 DATE: 11 04 1990              CUMULATIVE TIME STEP:       4
 MODFLOW STRESS PERIOD      3     CURRENT TIME STEP:      35     ITERATIONS:       6

 -----------------------------------------------------------------------------------

   CUMULATIVE VOLUMES               L**3   RATES FOR THIS TIME STEP           L**3/T
   ------------------                      ------------------------

                                     IN                                         IN
                                     --                                         --
        PRECIPITATION =         703113.06          PRECIPITATION =                  
           STREAMFLOW =                               STREAMFLOW =                  
     GW BOUNDARY FLOW =                         GW BOUNDARY FLOW =                  


                                    OUT                                        OUT
                                    ---                                        ---
   EVAPOTRANSPIRATION =        1004505.31     EVAPOTRANSPIRATION =          26291.37
           STREAMFLOW =         295185.70             STREAMFLOW =          10649.55
     GW BOUNDARY FLOW =           1267.03       GW BOUNDARY FLOW =             36.14

   INFLOWS - OUTFLOWS =        -597844.98     INFLOWS - OUTFLOWS =         -36977.06
             --------                                   --------

 TOTAL STORAGE CHANGE =        -601965.66         STORAGE CHANGE =         -38211.70
       --------------                             --------------
         LAND SURFACE =         132159.65           LAND SURFACE =        -160480.33
            SOIL ZONE =         350094.66              SOIL ZONE =         132915.31
     UNSATURATED ZONE =       -1420429.32       UNSATURATED ZONE =         -20040.94
       SATURATED ZONE =         336209.33         SATURATED ZONE =           9394.27

 OVERALL BUDGET ERROR =           4120.68           BUDGET ERROR =           1234.64

  ***WARNING, FLUX RATES OFF > 3%

  PERCENT DISCREPANCY =              0.32    PERCENT DISCREPANCY =              3.28



1
 SUMMARY VOLUMETRIC BUDGET FOR GSFLOW 
 DATE: 11 11 1990              CUMULATIVE TIME STEP:      11
 MODFLOW STRESS PERIOD      3     CURRENT TIME STEP:      42     ITERATIONS:       6

 -----------------------------------------------------------------------------------

   CUMULATIVE VOLUMES               L**3   RATES FOR THIS TIME STEP           L**3/T
   ------------------                      ------------------------

                                     IN                                         IN
                                     --                                         --
        PRECIPITATION =         703113.06          PRECIPITATION =                  
           STREAMFLOW =                               STREAMFLOW =                  
     GW BOUNDARY FLOW =                         GW BOUNDARY FLOW =                  


                                    OUT                                        OUT
                                    ---                                        ---
   EVAPOTRANSPIRATION =        1081649.79     EVAPOTRANSPIRATION =          12126.45
           STREAMFLOW =         366255.01             STREAMFLOW =           9645.67
     GW BOUNDARY FLOW =           1519.13       GW BOUNDARY FLOW =             35.92

   INFLOWS - OUTFLOWS =        -746310.87     INFLOWS - OUTFLOWS =         -21808.04
             --------                                   --------

 TOTAL STORAGE CHANGE =        -750553.10         STORAGE CHANGE =         -21799.37
       --------------                             --------------
         LAND SURFACE =            595.09           LAND SURFACE =          -1416.54
            SOIL ZONE =         422381.43              SOIL ZONE =          -5415.71
     UNSATURATED ZONE =       -1559484.56       UNSATURATED ZONE =         -19843.90
       SATURATED ZONE =         385954.90         SATURATED ZONE =           4876.77

 OVERALL BUDGET ERROR =           4242.24           BUDGET ERROR =             -8.67


  PERCENT DISCREPANCY =              0.29    PERCENT DISCREPANCY =             -0.04



1
 SUMMARY VOLUMETRIC BUDGET FOR GSFLOW 
 DATE: 11 18 1990              CUMULATIVE TIME STEP:      18
 MODFLOW STRESS PERIOD      3     CURRENT TIME STEP:      49     ITERATIONS:       6

 -----------------------------------------------------------------------------------

   CUMULATIVE VOLUMES               L**3   RATES FOR THIS TIME STEP           L**3/T
   ------------------                      ------------------------

                                     IN                                         IN
                                     --                                         --
        PRECIPITATION =         747883.35          PRECIPITATION =                  
           STREAMFLOW =                               STREAMFLOW =                  
     GW BOUNDARY FLOW =                         GW BOUNDARY FLOW =                  


                                    OUT                                        OUT
                                    ---                                        ---
   EVAPOTRANSPIRATION =        1154048.10     EVAPOTRANSPIRATION =           5057.04
           STREAMFLOW =         437983.71             STREAMFLOW =          10678.69
     GW BOUNDARY FLOW =           1770.44       GW BOUNDARY FLOW =             35.88

   INFLOWS - OUTFLOWS =        -845918.90     INFLOWS - OUTFLOWS =         -15771.62
             --------                                   --------

 TOTAL STORAGE CHANGE =        -850156.68         STORAGE CHANGE =         -15776.55
       --------------                             --------------
         LAND SURFACE =           7868.08           LAND SURFACE =          -3691.47
            SOIL ZONE =         404477.28              SOIL ZONE =           -745.86
     UNSATURATED ZONE =       -1692628.30       UNSATURATED ZONE =         -18606.89
       SATURATED ZONE =         430126.21         SATURATED ZONE =           7267.66

 OVERALL BUDGET ERROR =           4237.79           BUDGET ERROR =              4.93


  PERCENT DISCREPANCY =              0.27    PERCENT DISCREPANCY =              0.03



1
 SUMMARY VOLUMETRIC BUDGET FOR GSFLOW 
 DATE: 11 25 1990              CUMULATIVE TIME STEP:      25
 MODFLOW STRESS PERIOD      3     CURRENT TIME STEP:      56     ITERATIONS:       6

 -----------------------------------------------------------------------------------

   CUMULATIVE VOLUMES               L**3   RATES FOR THIS TIME STEP           L**3/T
   ------------------                      ------------------------

                                     IN                                         IN
                                     --                                         --
        PRECIPITATION =        1009043.38          PRECIPITATION =         186542.88
           STREAMFLOW =                               STREAMFLOW =                  
     GW BOUNDARY FLOW =                         GW BOUNDARY FLOW =                  


                                    OUT                                        OUT
                                    ---                                        ---
   EVAPOTRANSPIRATION =        1214507.34     EVAPOTRANSPIRATION =           3754.53
           STREAMFLOW =         514023.97             STREAMFLOW =          10880.45
     GW BOUNDARY FLOW =           2021.39       GW BOUNDARY FLOW =             35.79

   INFLOWS - OUTFLOWS =        -721509.32     INFLOWS - OUTFLOWS =         171872.10
             --------                                   --------

 TOTAL STORAGE CHANGE =        -727848.73         STORAGE CHANGE =         170020.43
       --------------                             --------------
         LAND SURFACE =          86180.68           LAND SURFACE =          69567.13
            SOIL ZONE =         526579.67              SOIL ZONE =         112087.63
     UNSATURATED ZONE =       -1820209.05       UNSATURATED ZONE =         -17909.30
       SATURATED ZONE =         479599.91         SATURATED ZONE =           6274.96

 OVERALL BUDGET ERROR =           6339.41           BUDGET ERROR =           1851.68


  PERCENT DISCREPANCY =              0.37    PERCENT DISCREPANCY =              1.00



1
 SUMMARY VOLUMETRIC BUDGET FOR GSFLOW 
 DATE: 12 02 1990              CUMULATIVE TIME STEP:       2
 MODFLOW STRESS PERIOD      4     CURRENT TIME STEP:      63     ITERATIONS:       6

 -----------------------------------------------------------------------------------

   CUMULATIVE VOLUMES               L**3   RATES FOR THIS TIME STEP           L**3/T
   ------------------                      ------------------------

                                     IN                                         IN
                                     --                                         --
        PRECIPITATION =        1449284.55          PRECIPITATION =                  
           STREAMFLOW =                               STREAMFLOW =                  
     GW BOUNDARY FLOW =                         GW BOUNDARY FLOW =                  


                                    OUT                                        OUT
                                    ---                                        ---
   EVAPOTRANSPIRATION =        1221003.15     EVAPOTRANSPIRATION =            234.75
           STREAMFLOW =         591280.99             STREAMFLOW =          11081.86
     GW BOUNDARY FLOW =           2271.88       GW BOUNDARY FLOW =             35.77

   INFLOWS - OUTFLOWS =        -365271.47     INFLOWS - OUTFLOWS =         -11352.38
             --------                                   --------

 TOTAL STORAGE CHANGE =        -372727.72         STORAGE CHANGE =         -11364.97
       --------------                             --------------
         LAND SURFACE =         486845.62           LAND SURFACE =           -339.04
            SOIL ZONE =         558839.78              SOIL ZONE =            142.27
     UNSATURATED ZONE =       -1943060.34       UNSATURATED ZONE =         -17255.87
       SATURATED ZONE =         524647.13         SATURATED ZONE =           6087.67

 OVERALL BUDGET ERROR =           7456.25           BUDGET ERROR =             12.59


  PERCENT DISCREPANCY =              0.41    PERCENT DISCREPANCY =              0.11



1
 SUMMARY VOLUMETRIC BUDGET FOR GSFLOW 
 DATE: 12 09 1990              CUMULATIVE TIME STEP:       9
 MODFLOW STRESS PERIOD      4     CURRENT TIME STEP:      70     ITERATIONS:       6

 -----------------------------------------------------------------------------------

   CUMULATIVE VOLUMES               L**3   RATES FOR THIS TIME STEP           L**3/T
   ------------------                      ------------------------

                                     IN                                         IN
                                     --                                         --
        PRECIPITATION =        1449284.55          PRECIPITATION =                  
           STREAMFLOW =                               STREAMFLOW =                  
     GW BOUNDARY FLOW =                         GW BOUNDARY FLOW =                  


                                    OUT                                        OUT
                                    ---                                        ---
   EVAPOTRANSPIRATION =        1296890.91     EVAPOTRANSPIRATION =          13862.47
           STREAMFLOW =         669086.41             STREAMFLOW =          10925.85
     GW BOUNDARY FLOW =           2521.84       GW BOUNDARY FLOW =             35.65

   INFLOWS - OUTFLOWS =        -519214.60     INFLOWS - OUTFLOWS =         -24823.96
             --------                                   --------

 TOTAL STORAGE CHANGE =        -531036.96         STORAGE CHANGE =         -24917.77
       --------------                             --------------
         LAND SURFACE =          67215.41           LAND SURFACE =         -45889.70
            SOIL ZONE =         901371.72              SOIL ZONE =          33526.81
     UNSATURATED ZONE =       -2060867.03       UNSATURATED ZONE =         -16486.63
       SATURATED ZONE =         561242.82         SATURATED ZONE =           3931.74

 OVERALL BUDGET ERROR =          11822.36           BUDGET ERROR =             93.81


  PERCENT DISCREPANCY =              0.60    PERCENT DISCREPANCY =              0.38



1
 SUMMARY VOLUMETRIC BUDGET FOR GSFLOW 
 DATE: 12 16 1990              CUMULATIVE TIME STEP:      16
 MODFLOW STRESS PERIOD      4     CURRENT TIME STEP:      77     ITERATIONS:       5

 -----------------------------------------------------------------------------------

   CUMULATIVE VOLUMES               L**3   RATES FOR THIS TIME STEP           L**3/T
   ------------------                      ------------------------

                                     IN                                         IN
                                     --                                         --
        PRECIPITATION =        1804962.84          PRECIPITATION =                  
           STREAMFLOW =                               STREAMFLOW =                  
     GW BOUNDARY FLOW =                         GW BOUNDARY FLOW =                  


                                    OUT                                        OUT
                                    ---                                        ---
   EVAPOTRANSPIRATION =        1325179.98     EVAPOTRANSPIRATION =                  
           STREAMFLOW =         748824.73             STREAMFLOW =          11521.12
     GW BOUNDARY FLOW =           2771.25       GW BOUNDARY FLOW =             35.61

   INFLOWS - OUTFLOWS =        -271813.11     INFLOWS - OUTFLOWS =         -11556.73
             --------                                   --------

 TOTAL STORAGE CHANGE =        -285896.94         STORAGE CHANGE =         -11571.94
       --------------                             --------------
         LAND SURFACE =         252566.26           LAND SURFACE =                  
            SOIL ZONE =        1043782.71              SOIL ZONE =            -32.91
     UNSATURATED ZONE =       -2174206.38       UNSATURATED ZONE =         -15930.57
       SATURATED ZONE =         591960.31         SATURATED ZONE =           4391.53

 OVERALL BUDGET ERROR =          14083.82           BUDGET ERROR =             15.20


  PERCENT DISCREPANCY =              0.68    PERCENT DISCREPANCY =              0.13



1
 SUMMARY VOLUMETRIC BUDGET FOR GSFLOW 
 DATE: 12 23 1990              CUMULATIVE TIME STEP:      23
 MODFLOW STRESS PERIOD      4     CURRENT TIME STEP:      84     ITERATIONS:       6

 -----------------------------------------------------------------------------------

   CUMULATIVE VOLUMES               L**3   RATES FOR THIS TIME STEP           L**3/T
   ------------------                      ------------------------

                                     IN                                         IN
                                     --                                         --
        PRECIPITATION =        2276236.55          PRECIPITATION =                  
           STREAMFLOW =                               STREAMFLOW =                  
     GW BOUNDARY FLOW =              0.08       GW BOUNDARY FLOW =              0.04


                                    OUT                                        OUT
                                    ---                                        ---
   EVAPOTRANSPIRATION =        1326237.57     EVAPOTRANSPIRATION =                  
           STREAMFLOW =         829670.18             STREAMFLOW =          11569.31
     GW BOUNDARY FLOW =           3020.29       GW BOUNDARY FLOW =             35.57

   INFLOWS - OUTFLOWS =         117308.59     INFLOWS - OUTFLOWS =         -11604.84
             --------                                   --------

 TOTAL STORAGE CHANGE =         103132.73         STORAGE CHANGE =         -11616.80
       --------------                             --------------
         LAND SURFACE =         722784.34           LAND SURFACE =                  
            SOIL ZONE =        1043900.28              SOIL ZONE =             46.59
     UNSATURATED ZONE =       -2283415.36       UNSATURATED ZONE =         -15356.10
       SATURATED ZONE =         619863.28         SATURATED ZONE =           3692.70

 OVERALL BUDGET ERROR =          14175.86           BUDGET ERROR =             11.96


  PERCENT DISCREPANCY =              0.62    PERCENT DISCREPANCY =              0.10



1
 SUMMARY VOLUMETRIC BUDGET FOR GSFLOW 
 DATE: 12 30 1990              CUMULATIVE TIME STEP:      30
 MODFLOW STRESS PERIOD      4     CURRENT TIME STEP:      91     ITERATIONS:       5

 -----------------------------------------------------------------------------------

   CUMULATIVE VOLUMES               L**3   RATES FOR THIS TIME STEP           L**3/T
   ------------------                      ------------------------

                                     IN                                         IN
                                     --                                         --
        PRECIPITATION =        2276236.55          PRECIPITATION =                  
           STREAMFLOW =                               STREAMFLOW =                  
     GW BOUNDARY FLOW =              0.77       GW BOUNDARY FLOW =              0.14


                                    OUT                                        OUT
                                    ---                                        ---
   EVAPOTRANSPIRATION =        1326805.08     EVAPOTRANSPIRATION =                  
           STREAMFLOW =         910924.77             STREAMFLOW =          11639.79
     GW BOUNDARY FLOW =           3269.40       GW BOUNDARY FLOW =             35.60

   INFLOWS - OUTFLOWS =          35238.08     INFLOWS - OUTFLOWS =         -11675.25
             --------                                   --------

 TOTAL STORAGE CHANGE =          20985.42         STORAGE CHANGE =         -11685.27
       --------------                             --------------
         LAND SURFACE =         722216.94           LAND SURFACE =                  
            SOIL ZONE =        1044428.58              SOIL ZONE =             94.73
     UNSATURATED ZONE =       -2388708.35       UNSATURATED ZONE =         -14808.22
       SATURATED ZONE =         643048.01         SATURATED ZONE =           3028.22

 OVERALL BUDGET ERROR =          14252.66           BUDGET ERROR =             10.03


  PERCENT DISCREPANCY =              0.63    PERCENT DISCREPANCY =              0.09



1
 SUMMARY VOLUMETRIC BUDGET FOR GSFLOW 
 DATE: 01 06 1991              CUMULATIVE TIME STEP:       6
 MODFLOW STRESS PERIOD      5     CURRENT TIME STEP:      98     ITERATIONS:       5

 -----------------------------------------------------------------------------------

   CUMULATIVE VOLUMES               L**3   RATES FOR THIS TIME STEP           L**3/T
   ------------------                      ------------------------

                                     IN                                         IN
                                     --                                         --
        PRECIPITATION =        2276236.55          PRECIPITATION =                  
           STREAMFLOW =                               STREAMFLOW =                  
     GW BOUNDARY FLOW =              2.09       GW BOUNDARY FLOW =              0.22


                                    OUT                                        OUT
                                    ---                                        ---
   EVAPOTRANSPIRATION =        1353817.11     EVAPOTRANSPIRATION =           3184.27
           STREAMFLOW =         992849.14             STREAMFLOW =          11744.03
     GW BOUNDARY FLOW =           3519.28       GW BOUNDARY FLOW =             35.75

   INFLOWS - OUTFLOWS =         -73946.89     INFLOWS - OUTFLOWS =         -14963.82
             --------                                   --------

 TOTAL STORAGE CHANGE =         -90751.50         STORAGE CHANGE =         -15096.22
       --------------                             --------------
         LAND SURFACE =         592099.77           LAND SURFACE =          -8106.31
            SOIL ZONE =        1145682.87              SOIL ZONE =           4882.02
     UNSATURATED ZONE =       -2490051.87       UNSATURATED ZONE =         -14245.61
       SATURATED ZONE =         661517.46         SATURATED ZONE =           2373.67

 OVERALL BUDGET ERROR =          16804.61           BUDGET ERROR =            132.39


  PERCENT DISCREPANCY =              0.71    PERCENT DISCREPANCY =              0.88



1
 SUMMARY VOLUMETRIC BUDGET FOR GSFLOW 
 DATE: 01 13 1991              CUMULATIVE TIME STEP:      13
 MODFLOW STRESS PERIOD      5     CURRENT TIME STEP:     105     ITERATIONS:       6

 -----------------------------------------------------------------------------------

   CUMULATIVE VOLUMES               L**3   RATES FOR THIS TIME STEP           L**3/T
   ------------------                      ------------------------

                                     IN                                         IN
                                     --                                         --
        PRECIPITATION =        2596386.94          PRECIPITATION =          10327.43
           STREAMFLOW =                               STREAMFLOW =                  
     GW BOUNDARY FLOW =              4.01       GW BOUNDARY FLOW =              0.31


                                    OUT                                        OUT
                                    ---                                        ---
   EVAPOTRANSPIRATION =        1420638.33     EVAPOTRANSPIRATION =          18625.38
           STREAMFLOW =        1075224.31             STREAMFLOW =          11747.47
     GW BOUNDARY FLOW =           3769.51       GW BOUNDARY FLOW =             35.73

   INFLOWS - OUTFLOWS =          96758.81     INFLOWS - OUTFLOWS =         -20080.83
             --------                                   --------

 TOTAL STORAGE CHANGE =          75005.16         STORAGE CHANGE =         -21305.12
       --------------                             --------------
         LAND SURFACE =         529885.07           LAND SURFACE =        -135264.71
            SOIL ZONE =        1458049.10              SOIL ZONE =         126525.59
     UNSATURATED ZONE =       -2587321.13       UNSATURATED ZONE =         -13691.25
       SATURATED ZONE =         674391.80         SATURATED ZONE =           1125.24

 OVERALL BUDGET ERROR =          21753.65           BUDGET ERROR =           1224.29

  ***WARNING, FLUX RATES OFF > 3%

  PERCENT DISCREPANCY =              0.84    PERCENT DISCREPANCY =              3.95



1
 SUMMARY VOLUMETRIC BUDGET FOR GSFLOW 
 DATE: 01 20 1991              CUMULATIVE TIME STEP:      20
 MODFLOW STRESS PERIOD      5     CURRENT TIME STEP:     112     ITERATIONS:       5

 -----------------------------------------------------------------------------------

   CUMULATIVE VOLUMES               L**3   RATES FOR THIS TIME STEP           L**3/T
   ------------------                      ------------------------

                                     IN                                         IN
                                     --                                         --
        PRECIPITATION =        2596386.94          PRECIPITATION =                  
           STREAMFLOW =                               STREAMFLOW =                  
     GW BOUNDARY FLOW =              6.54       GW BOUNDARY FLOW =              0.40


                                    OUT                                        OUT
                                    ---                                        ---
   EVAPOTRANSPIRATION =        1497973.59     EVAPOTRANSPIRATION =           2461.12
           STREAMFLOW =        1158430.05             STREAMFLOW =          11904.42
     GW BOUNDARY FLOW =           4019.73       GW BOUNDARY FLOW =             35.74

   INFLOWS - OUTFLOWS =         -64029.89     INFLOWS - OUTFLOWS =         -14400.88
             --------                                   --------

 TOTAL STORAGE CHANGE =         -86552.07         STORAGE CHANGE =         -14400.02
       --------------                             --------------
         LAND SURFACE =         356897.60           LAND SURFACE =           -433.81
            SOIL ZONE =        1553612.11              SOIL ZONE =          -1970.51
     UNSATURATED ZONE =       -2680719.48       UNSATURATED ZONE =         -13124.26
       SATURATED ZONE =         683657.32         SATURATED ZONE =           1128.55

 OVERALL BUDGET ERROR =          22522.18           BUDGET ERROR =             -0.86


  PERCENT DISCREPANCY =              0.84    PERCENT DISCREPANCY =             -0.01



1
 SUMMARY VOLUMETRIC BUDGET FOR GSFLOW 
 DATE: 01 27 1991              CUMULATIVE TIME STEP:      27
 MODFLOW STRESS PERIOD      5     CURRENT TIME STEP:     119     ITERATIONS:       5

 -----------------------------------------------------------------------------------

   CUMULATIVE VOLUMES               L**3   RATES FOR THIS TIME STEP           L**3/T
   ------------------                      ------------------------

                                     IN                                         IN
                                     --                                         --
        PRECIPITATION =        2596386.94          PRECIPITATION =                  
           STREAMFLOW =                               STREAMFLOW =                  
     GW BOUNDARY FLOW =              9.65       GW BOUNDARY FLOW =              0.48


                                    OUT                                        OUT
                                    ---                                        ---
   EVAPOTRANSPIRATION =        1523870.54     EVAPOTRANSPIRATION =           1702.90
           STREAMFLOW =        1241702.64             STREAMFLOW =          11921.56
     GW BOUNDARY FLOW =           4269.90       GW BOUNDARY FLOW =             35.74

   INFLOWS - OUTFLOWS =        -173446.48     INFLOWS - OUTFLOWS =         -13659.73
             --------                                   --------

 TOTAL STORAGE CHANGE =        -196186.31         STORAGE CHANGE =         -13672.02
       --------------                             --------------
         LAND SURFACE =         323033.09           LAND SURFACE =           -547.84
            SOIL ZONE =        1562288.49              SOIL ZONE =          -1065.67
     UNSATURATED ZONE =       -2770647.18       UNSATURATED ZONE =         -12629.19
       SATURATED ZONE =         689138.85         SATURATED ZONE =            570.66

 OVERALL BUDGET ERROR =          22739.82           BUDGET ERROR =             12.30


  PERCENT DISCREPANCY =              0.82    PERCENT DISCREPANCY =              0.09



1
 SUMMARY VOLUMETRIC BUDGET FOR GSFLOW 
 DATE: 02 03 1991              CUMULATIVE TIME STEP:       3
 MODFLOW STRESS PERIOD      6     CURRENT TIME STEP:     126     ITERATIONS:       6

 -----------------------------------------------------------------------------------

   CUMULATIVE VOLUMES               L**3   RATES FOR THIS TIME STEP           L**3/T
   ------------------                      ------------------------

                                     IN                                         IN
                                     --                                         --
        PRECIPITATION =        3228422.31          PRECIPITATION =          30459.53
           STREAMFLOW =                               STREAMFLOW =                  
     GW BOUNDARY FLOW =             13.31       GW BOUNDARY FLOW =              0.55


                                    OUT                                        OUT
                                    ---                                        ---
   EVAPOTRANSPIRATION =        1630880.00     EVAPOTRANSPIRATION =          21403.89
           STREAMFLOW =        1326546.83             STREAMFLOW =          12247.62
     GW BOUNDARY FLOW =           4520.00       GW BOUNDARY FLOW =             35.74

   INFLOWS - OUTFLOWS =         266488.78     INFLOWS - OUTFLOWS =          -3227.15
             --------                                   --------

 TOTAL STORAGE CHANGE =         236776.93         STORAGE CHANGE =          -3507.55
       --------------                             --------------
         LAND SURFACE =         157683.43           LAND SURFACE =         -26376.35
            SOIL ZONE =        2246087.23              SOIL ZONE =          35065.55
     UNSATURATED ZONE =       -2857254.56       UNSATURATED ZONE =         -12195.43
       SATURATED ZONE =         690260.32         SATURATED ZONE =             -1.34

 OVERALL BUDGET ERROR =          29711.85           BUDGET ERROR =            280.40


  PERCENT DISCREPANCY =              0.92    PERCENT DISCREPANCY =              0.83



1
 SUMMARY VOLUMETRIC BUDGET FOR GSFLOW 
 DATE: 02 10 1991              CUMULATIVE TIME STEP:      10
 MODFLOW STRESS PERIOD      6     CURRENT TIME STEP:     133     ITERATIONS:       5

 -----------------------------------------------------------------------------------

   CUMULATIVE VOLUMES               L**3   RATES FOR THIS TIME STEP           L**3/T
   ------------------                      ------------------------

                                     IN                                         IN
                                     --                                         --
        PRECIPITATION =        3510173.01          PRECIPITATION =                  
           STREAMFLOW =                               STREAMFLOW =                  
     GW BOUNDARY FLOW =             17.48       GW BOUNDARY FLOW =              0.63


                                    OUT                                        OUT
                                    ---                                        ---
   EVAPOTRANSPIRATION =        1798656.24     EVAPOTRANSPIRATION =          25669.06
           STREAMFLOW =        1412755.65             STREAMFLOW =          12171.94
     GW BOUNDARY FLOW =           4770.09       GW BOUNDARY FLOW =             35.72

   INFLOWS - OUTFLOWS =         294008.52     INFLOWS - OUTFLOWS =         -37876.10
             --------                                   --------

 TOTAL STORAGE CHANGE =         261712.00         STORAGE CHANGE =         -37801.12
       --------------                             --------------
         LAND SURFACE =          75877.11           LAND SURFACE =          -8469.89
            SOIL ZONE =        2437816.98              SOIL ZONE =         -17129.41
     UNSATURATED ZONE =       -2940426.29       UNSATURATED ZONE =         -11688.84
       SATURATED ZONE =         688443.61         SATURATED ZONE =           -512.99

 OVERALL BUDGET ERROR =          32296.51           BUDGET ERROR =            -74.98


  PERCENT DISCREPANCY =              0.92    PERCENT DISCREPANCY =             -0.20



1
 SUMMARY VOLUMETRIC BUDGET FOR GSFLOW 
 DATE: 02 17 1991              CUMULATIVE TIME STEP:      17
 MODFLOW STRESS PERIOD      6     CURRENT TIME STEP:     140     ITERATIONS:       5

 -----------------------------------------------------------------------------------

   CUMULATIVE VOLUMES               L**3   RATES FOR THIS TIME STEP           L**3/T
   ------------------                      ------------------------

                                     IN                                         IN
                                     --                                         --
        PRECIPITATION =        3510173.01          PRECIPITATION =                  
           STREAMFLOW =                               STREAMFLOW =                  
     GW BOUNDARY FLOW =             22.15       GW BOUNDARY FLOW =              0.70


                                    OUT                                        OUT
                                    ---                                        ---
   EVAPOTRANSPIRATION =        2041715.14     EVAPOTRANSPIRATION =          23705.62
           STREAMFLOW =        1497512.72             STREAMFLOW =          12104.30
     GW BOUNDARY FLOW =           5020.02       GW BOUNDARY FLOW =             35.68

   INFLOWS - OUTFLOWS =         -34052.71     INFLOWS - OUTFLOWS =         -35844.90
             --------                                   --------

 TOTAL STORAGE CHANGE =         -65583.56         STORAGE CHANGE =         -35769.13
       --------------                             --------------
         LAND SURFACE =          17890.99           LAND SURFACE =          -1143.67
            SOIL ZONE =        2253955.61              SOIL ZONE =         -22482.12
     UNSATURATED ZONE =       -3020059.18       UNSATURATED ZONE =         -11094.32
       SATURATED ZONE =         682628.34         SATURATED ZONE =          -1049.04

 OVERALL BUDGET ERROR =          31530.85           BUDGET ERROR =            -75.77


  PERCENT DISCREPANCY =              0.89    PERCENT DISCREPANCY =             -0.21



1
 SUMMARY VOLUMETRIC BUDGET FOR GSFLOW 
 DATE: 02 24 1991              CUMULATIVE TIME STEP:      24
 MODFLOW STRESS PERIOD      6     CURRENT TIME STEP:     147     ITERATIONS:       5

 -----------------------------------------------------------------------------------

   CUMULATIVE VOLUMES               L**3   RATES FOR THIS TIME STEP           L**3/T
   ------------------                      ------------------------

                                     IN                                         IN
                                     --                                         --
        PRECIPITATION =        3510173.01          PRECIPITATION =                  
           STREAMFLOW =                               STREAMFLOW =                  
     GW BOUNDARY FLOW =             27.30       GW BOUNDARY FLOW =              0.76


                                    OUT                                        OUT
                                    ---                                        ---
   EVAPOTRANSPIRATION =        2255146.66     EVAPOTRANSPIRATION =          21630.86
           STREAMFLOW =        1581571.96             STREAMFLOW =          11972.54
     GW BOUNDARY FLOW =           5268.94       GW BOUNDARY FLOW =             35.48

   INFLOWS - OUTFLOWS =        -331787.24     INFLOWS - OUTFLOWS =         -33638.12
             --------                                   --------

 TOTAL STORAGE CHANGE =        -362621.29         STORAGE CHANGE =         -33565.56
       --------------                             --------------
         LAND SURFACE =           7435.72           LAND SURFACE =           -217.69
            SOIL ZONE =        2052982.70              SOIL ZONE =         -21048.50
     UNSATURATED ZONE =       -3096045.95       UNSATURATED ZONE =         -10678.05
       SATURATED ZONE =         673005.47         SATURATED ZONE =          -1621.33

 OVERALL BUDGET ERROR =          30834.05           BUDGET ERROR =            -72.55


  PERCENT DISCREPANCY =              0.80    PERCENT DISCREPANCY =             -0.22



1
 SUMMARY VOLUMETRIC BUDGET FOR GSFLOW 
 DATE: 03 03 1991              CUMULATIVE TIME STEP:       3
 MODFLOW STRESS PERIOD      7     CURRENT TIME STEP:     154     ITERATIONS:       5

 -----------------------------------------------------------------------------------

   CUMULATIVE VOLUMES               L**3   RATES FOR THIS TIME STEP           L**3/T
   ------------------                      ------------------------

                                     IN                                         IN
                                     --                                         --
        PRECIPITATION =        6220189.63          PRECIPITATION =        1243187.24
           STREAMFLOW =                               STREAMFLOW =                  
     GW BOUNDARY FLOW =             32.90       GW BOUNDARY FLOW =              0.83


                                    OUT                                        OUT
                                    ---                                        ---
   EVAPOTRANSPIRATION =        2407173.18     EVAPOTRANSPIRATION =           8441.92
           STREAMFLOW =        1665147.65             STREAMFLOW =          12336.86
     GW BOUNDARY FLOW =           5516.63       GW BOUNDARY FLOW =             35.34

   INFLOWS - OUTFLOWS =        2142385.08     INFLOWS - OUTFLOWS =        1222373.96
             --------                                   --------

 TOTAL STORAGE CHANGE =        2104522.88         STORAGE CHANGE =        1214895.23
       --------------                             --------------
         LAND SURFACE =        2352761.88           LAND SURFACE =         894135.84
            SOIL ZONE =        2262859.76              SOIL ZONE =         333412.31
     UNSATURATED ZONE =       -3168944.23       UNSATURATED ZONE =         -10271.72
       SATURATED ZONE =         657844.60         SATURATED ZONE =          -2381.23

 OVERALL BUDGET ERROR =          37862.20           BUDGET ERROR =           7478.73


  PERCENT DISCREPANCY =              0.61    PERCENT DISCREPANCY =              0.60



1
 SUMMARY VOLUMETRIC BUDGET FOR GSFLOW 
 DATE: 03 10 1991              CUMULATIVE TIME STEP:      10
 MODFLOW STRESS PERIOD      7     CURRENT TIME STEP:     161     ITERATIONS:       5

 -----------------------------------------------------------------------------------

   CUMULATIVE VOLUMES               L**3   RATES FOR THIS TIME STEP           L**3/T
   ------------------                      ------------------------

                                     IN                                         IN
                                     --                                         --
        PRECIPITATION =        8746030.42          PRECIPITATION =          32888.55
           STREAMFLOW =                               STREAMFLOW =                  
     GW BOUNDARY FLOW =             38.93       GW BOUNDARY FLOW =              0.89


                                    OUT                                        OUT
                                    ---                                        ---
   EVAPOTRANSPIRATION =        2480468.70     EVAPOTRANSPIRATION =           8863.45
           STREAMFLOW =        1844585.37             STREAMFLOW =          21785.25
     GW BOUNDARY FLOW =           5765.48       GW BOUNDARY FLOW =             35.44

   INFLOWS - OUTFLOWS =        4415249.80     INFLOWS - OUTFLOWS =           2205.29
             --------                                   --------

 TOTAL STORAGE CHANGE =        4341190.44         STORAGE CHANGE =           1106.05
       --------------                             --------------
         LAND SURFACE =        2523463.28           LAND SURFACE =         -14137.08
            SOIL ZONE =        4355967.12              SOIL ZONE =          18668.37
     UNSATURATED ZONE =       -3190644.07       UNSATURATED ZONE =          -2086.00
       SATURATED ZONE =         652403.05         SATURATED ZONE =          -1339.27

 OVERALL BUDGET ERROR =          74059.37           BUDGET ERROR =           1099.24

  ***WARNING, FLUX RATES OFF > 3%

  PERCENT DISCREPANCY =              0.85    PERCENT DISCREPANCY =              3.40



1
 SUMMARY VOLUMETRIC BUDGET FOR GSFLOW 
 DATE: 03 17 1991              CUMULATIVE TIME STEP:      17
 MODFLOW STRESS PERIOD      7     CURRENT TIME STEP:     168     ITERATIONS:       5

 -----------------------------------------------------------------------------------

   CUMULATIVE VOLUMES               L**3   RATES FOR THIS TIME STEP           L**3/T
   ------------------                      ------------------------

                                     IN                                         IN
                                     --                                         --
        PRECIPITATION =        9897129.71          PRECIPITATION =         157865.04
           STREAMFLOW =                               STREAMFLOW =                  
     GW BOUNDARY FLOW =             45.38       GW BOUNDARY FLOW =              0.95


                                    OUT                                        OUT
                                    ---                                        ---
   EVAPOTRANSPIRATION =        2508307.14     EVAPOTRANSPIRATION =           8079.62
           STREAMFLOW =        1985154.20             STREAMFLOW =          19451.75
     GW BOUNDARY FLOW =           6012.73       GW BOUNDARY FLOW =             35.24

   INFLOWS - OUTFLOWS =        5397701.03     INFLOWS - OUTFLOWS =         130299.37
             --------                                   --------

 TOTAL STORAGE CHANGE =        5322183.40         STORAGE CHANGE =         130121.19
       --------------                             --------------
         LAND SURFACE =        3672302.31           LAND SURFACE =         157496.61
            SOIL ZONE =        4218768.71              SOIL ZONE =         -22430.66
     UNSATURATED ZONE =       -3208746.41       UNSATURATED ZONE =          -2874.67
       SATURATED ZONE =         639857.52         SATURATED ZONE =          -2070.12

 OVERALL BUDGET ERROR =          75517.63           BUDGET ERROR =            178.18


  PERCENT DISCREPANCY =              0.77    PERCENT DISCREPANCY =              0.11



1
 SUMMARY VOLUMETRIC BUDGET FOR GSFLOW 
 DATE: 03 24 1991              CUMULATIVE TIME STEP:      24
 MODFLOW STRESS PERIOD      7     CURRENT TIME STEP:     175     ITERATIONS:       5

 -----------------------------------------------------------------------------------

   CUMULATIVE VOLUMES               L**3   RATES FOR THIS TIME STEP           L**3/T
   ------------------                      ------------------------

                                     IN                                         IN
                                     --                                         --
        PRECIPITATION =        1.1673D+07          PRECIPITATION =        1230031.83
           STREAMFLOW =                               STREAMFLOW =                  
     GW BOUNDARY FLOW =             52.23       GW BOUNDARY FLOW =              1.00


                                    OUT                                        OUT
                                    ---                                        ---
   EVAPOTRANSPIRATION =        2547132.52     EVAPOTRANSPIRATION =           4663.35
           STREAMFLOW =        2117362.09             STREAMFLOW =          18594.05
     GW BOUNDARY FLOW =           6258.76       GW BOUNDARY FLOW =             35.08

   INFLOWS - OUTFLOWS =        7002410.37     INFLOWS - OUTFLOWS =        1206740.36
             --------                                   --------

 TOTAL STORAGE CHANGE =        6924974.87         STORAGE CHANGE =        1206570.67
       --------------                             --------------
         LAND SURFACE =        5426161.22           LAND SURFACE =        1230031.83
            SOIL ZONE =        4107598.31              SOIL ZONE =         -17330.64
     UNSATURATED ZONE =       -3232409.19       UNSATURATED ZONE =          -3632.07
       SATURATED ZONE =         623623.04         SATURATED ZONE =          -2498.47

 OVERALL BUDGET ERROR =          77435.50           BUDGET ERROR =            169.68


  PERCENT DISCREPANCY =              0.67    PERCENT DISCREPANCY =              0.01



1
 SUMMARY VOLUMETRIC BUDGET FOR GSFLOW 
 DATE: 03 31 1991              CUMULATIVE TIME STEP:      31
 MODFLOW STRESS PERIOD      7     CURRENT TIME STEP:     182     ITERATIONS:       6

 -----------------------------------------------------------------------------------

   CUMULATIVE VOLUMES               L**3   RATES FOR THIS TIME STEP           L**3/T
   ------------------                      ------------------------

                                     IN                                         IN
                                     --                                         --
        PRECIPITATION =        1.2495D+07          PRECIPITATION =                  
           STREAMFLOW =                               STREAMFLOW =                  
     GW BOUNDARY FLOW =             59.47       GW BOUNDARY FLOW =              1.06


                                    OUT                                        OUT
                                    ---                                        ---
   EVAPOTRANSPIRATION =        2668894.48     EVAPOTRANSPIRATION =          48053.54
           STREAMFLOW =        2249533.69             STREAMFLOW =          21917.87
     GW BOUNDARY FLOW =           6503.82       GW BOUNDARY FLOW =             35.02

   INFLOWS - OUTFLOWS =        7570452.77     INFLOWS - OUTFLOWS =         -70005.37
             --------                                   --------

 TOTAL STORAGE CHANGE =        7487386.51         STORAGE CHANGE =         -72969.77
       --------------                             --------------
         LAND SURFACE =        5977198.26           LAND SURFACE =        -148137.48
            SOIL ZONE =        4162372.41              SOIL ZONE =          80467.36
     UNSATURATED ZONE =       -3257532.67       UNSATURATED ZONE =          -2598.98
       SATURATED ZONE =         605346.81         SATURATED ZONE =          -2700.69

 OVERALL BUDGET ERROR =          83066.26           BUDGET ERROR =           2964.40

  ***WARNING, FLUX RATES OFF > 3%

  PERCENT DISCREPANCY =              0.67    PERCENT DISCREPANCY =              4.15



1
 SUMMARY VOLUMETRIC BUDGET FOR GSFLOW 
 DATE: 04 07 1991              CUMULATIVE TIME STEP:       7
 MODFLOW STRESS PERIOD      8     CURRENT TIME STEP:     189     ITERATIONS:       7

 -----------------------------------------------------------------------------------

   CUMULATIVE VOLUMES               L**3   RATES FOR THIS TIME STEP           L**3/T
   ------------------                      ------------------------

                                     IN                                         IN
                                     --                                         --
        PRECIPITATION =        1.3018D+07          PRECIPITATION =                  
           STREAMFLOW =                               STREAMFLOW =                  
     GW BOUNDARY FLOW =             67.08       GW BOUNDARY FLOW =              1.11


                                    OUT                                        OUT
                                    ---                                        ---
   EVAPOTRANSPIRATION =        2976986.66     EVAPOTRANSPIRATION =          15960.30
           STREAMFLOW =        2560857.25             STREAMFLOW =          62034.62
     GW BOUNDARY FLOW =           6751.11       GW BOUNDARY FLOW =             35.58

   INFLOWS - OUTFLOWS =        7473208.79     INFLOWS - OUTFLOWS =         -78029.39
             --------                                   --------

 TOTAL STORAGE CHANGE =        7352902.83         STORAGE CHANGE =         -80749.31
       --------------                             --------------
         LAND SURFACE =        4335933.24           LAND SURFACE =         -73164.41
            SOIL ZONE =        5662810.96              SOIL ZONE =         -14535.22
     UNSATURATED ZONE =       -3235602.85       UNSATURATED ZONE =           9017.66
       SATURATED ZONE =         589759.52         SATURATED ZONE =          -2067.39

 OVERALL BUDGET ERROR =         120305.96           BUDGET ERROR =           2719.92

  ***WARNING, FLUX RATES OFF > 3%

  PERCENT DISCREPANCY =              0.93    PERCENT DISCREPANCY =              3.43



1
 SUMMARY VOLUMETRIC BUDGET FOR GSFLOW 
 DATE: 04 14 1991              CUMULATIVE TIME STEP:      14
 MODFLOW STRESS PERIOD      8     CURRENT TIME STEP:     196     ITERATIONS:       7

 -----------------------------------------------------------------------------------

   CUMULATIVE VOLUMES               L**3   RATES FOR THIS TIME STEP           L**3/T
   ------------------                      ------------------------

                                     IN                                         IN
                                     --                                         --
        PRECIPITATION =        1.3018D+07          PRECIPITATION =                  
           STREAMFLOW =                               STREAMFLOW =                  
     GW BOUNDARY FLOW =             75.01       GW BOUNDARY FLOW =              1.15


                                    OUT                                        OUT
                                    ---                                        ---
   EVAPOTRANSPIRATION =        3161097.50     EVAPOTRANSPIRATION =          42037.36
           STREAMFLOW =        3039053.49             STREAMFLOW =          72763.95
     GW BOUNDARY FLOW =           7000.23       GW BOUNDARY FLOW =             35.60

   INFLOWS - OUTFLOWS =        6810660.53     INFLOWS - OUTFLOWS =        -114835.75
             --------                                   --------

 TOTAL STORAGE CHANGE =        6667416.12         STORAGE CHANGE =        -119630.91
       --------------                             --------------
         LAND SURFACE =        3672284.11           LAND SURFACE =        -192335.10
            SOIL ZONE =        5595164.12              SOIL ZONE =          66545.76
     UNSATURATED ZONE =       -3176155.36       UNSATURATED ZONE =           7947.48
       SATURATED ZONE =         576120.97         SATURATED ZONE =          -1789.10

 OVERALL BUDGET ERROR =         143244.41           BUDGET ERROR =           4795.16

  ***WARNING, FLUX RATES OFF > 3%

  PERCENT DISCREPANCY =              1.11    PERCENT DISCREPANCY =              4.09



1
 SUMMARY VOLUMETRIC BUDGET FOR GSFLOW 
 DATE: 04 21 1991              CUMULATIVE TIME STEP:      21
 MODFLOW STRESS PERIOD      8     CURRENT TIME STEP:     203     ITERATIONS:       9

 -----------------------------------------------------------------------------------

   CUMULATIVE VOLUMES               L**3   RATES FOR THIS TIME STEP           L**3/T
   ------------------                      ------------------------

                                     IN                                         IN
                                     --                                         --
        PRECIPITATION =        1.3034D+07          PRECIPITATION =                  
           STREAMFLOW =                               STREAMFLOW =                  
     GW BOUNDARY FLOW =             83.25       GW BOUNDARY FLOW =              1.19


                                    OUT                                        OUT
                                    ---                                        ---
   EVAPOTRANSPIRATION =        3414732.14     EVAPOTRANSPIRATION =          46895.54
           STREAMFLOW =        3588951.10             STREAMFLOW =          89809.66
     GW BOUNDARY FLOW =           7249.53       GW BOUNDARY FLOW =             35.72

   INFLOWS - OUTFLOWS =        6023212.56     INFLOWS - OUTFLOWS =        -136739.73
             --------                                   --------

 TOTAL STORAGE CHANGE =        5849338.09         STORAGE CHANGE =        -141828.76
       --------------                             --------------
         LAND SURFACE =        2500870.94           LAND SURFACE =        -216968.59
            SOIL ZONE =        5899702.79              SOIL ZONE =          66398.95
     UNSATURATED ZONE =       -3115239.75       UNSATURATED ZONE =          10222.34
       SATURATED ZONE =         564001.47         SATURATED ZONE =          -1481.52

 OVERALL BUDGET ERROR =         173874.47           BUDGET ERROR =           5089.04

  ***WARNING, FLUX RATES OFF > 3%

  PERCENT DISCREPANCY =              1.34    PERCENT DISCREPANCY =              3.65



1
 SUMMARY VOLUMETRIC BUDGET FOR GSFLOW 
 DATE: 04 28 1991              CUMULATIVE TIME STEP:      28
 MODFLOW STRESS PERIOD      8     CURRENT TIME STEP:     210     ITERATIONS:       6

 -----------------------------------------------------------------------------------

   CUMULATIVE VOLUMES               L**3   RATES FOR THIS TIME STEP           L**3/T
   ------------------                      ------------------------

                                     IN                                         IN
                                     --                                         --
        PRECIPITATION =        1.3303D+07          PRECIPITATION =                  
           STREAMFLOW =                               STREAMFLOW =                  
     GW BOUNDARY FLOW =             91.75       GW BOUNDARY FLOW =              1.23


                                    OUT                                        OUT
                                    ---                                        ---
   EVAPOTRANSPIRATION =        3683153.26     EVAPOTRANSPIRATION =          58231.63
           STREAMFLOW =        4232597.06             STREAMFLOW =          91237.92
     GW BOUNDARY FLOW =           7499.38       GW BOUNDARY FLOW =             35.64

   INFLOWS - OUTFLOWS =        5380272.56     INFLOWS - OUTFLOWS =        -149503.96
             --------                                   --------

 TOTAL STORAGE CHANGE =        5174573.63         STORAGE CHANGE =        -153512.57
       --------------                             --------------
         LAND SURFACE =        1748447.64           LAND SURFACE =        -137153.52
            SOIL ZONE =        5912463.89              SOIL ZONE =         -25144.91
     UNSATURATED ZONE =       -3042122.73       UNSATURATED ZONE =           9914.76
       SATURATED ZONE =         555781.80         SATURATED ZONE =          -1128.96

 OVERALL BUDGET ERROR =         205698.93           BUDGET ERROR =           4008.61


  PERCENT DISCREPANCY =              1.56    PERCENT DISCREPANCY =              2.65



1
 SUMMARY VOLUMETRIC BUDGET FOR GSFLOW 
 DATE: 05 05 1991              CUMULATIVE TIME STEP:       5
 MODFLOW STRESS PERIOD      9     CURRENT TIME STEP:     217     ITERATIONS:     185

 -----------------------------------------------------------------------------------

   CUMULATIVE VOLUMES               L**3   RATES FOR THIS TIME STEP           L**3/T
   ------------------                      ------------------------

                                     IN                                         IN
                                     --                                         --
        PRECIPITATION =        1.3510D+07          PRECIPITATION =                  
           STREAMFLOW =                               STREAMFLOW =                  
     GW BOUNDARY FLOW =            100.51       GW BOUNDARY FLOW =              1.27


                                    OUT                                        OUT
                                    ---                                        ---
   EVAPOTRANSPIRATION =        4060678.69     EVAPOTRANSPIRATION =          90410.24
           STREAMFLOW =        4815778.55             STREAMFLOW =          83178.41
     GW BOUNDARY FLOW =           7747.74       GW BOUNDARY FLOW =             35.41

   INFLOWS - OUTFLOWS =        4625603.67     INFLOWS - OUTFLOWS =        -173622.80
             --------                                   --------

 TOTAL STORAGE CHANGE =        4395486.71         STORAGE CHANGE =        -176947.74
       --------------                             --------------
         LAND SURFACE =        1036420.07           LAND SURFACE =        -150153.36
            SOIL ZONE =        5789250.48              SOIL ZONE =         -35398.91
     UNSATURATED ZONE =       -2978746.80       UNSATURATED ZONE =           7820.59
       SATURATED ZONE =         548559.50         SATURATED ZONE =            783.87

 OVERALL BUDGET ERROR =         230116.96           BUDGET ERROR =           3324.94


  PERCENT DISCREPANCY =              1.72    PERCENT DISCREPANCY =              1.90



1
 SUMMARY VOLUMETRIC BUDGET FOR GSFLOW 
 DATE: 05 12 1991              CUMULATIVE TIME STEP:      12
 MODFLOW STRESS PERIOD      9     CURRENT TIME STEP:     224     ITERATIONS:       7

 -----------------------------------------------------------------------------------

   CUMULATIVE VOLUMES               L**3   RATES FOR THIS TIME STEP           L**3/T
   ------------------                      ------------------------

                                     IN                                         IN
                                     --                                         --
        PRECIPITATION =        1.4029D+07          PRECIPITATION =                  
           STREAMFLOW =                               STREAMFLOW =                  
     GW BOUNDARY FLOW =            109.55       GW BOUNDARY FLOW =              1.31


                                    OUT                                        OUT
                                    ---                                        ---
   EVAPOTRANSPIRATION =        4456288.45     EVAPOTRANSPIRATION =          68952.27
           STREAMFLOW =        5360633.50             STREAMFLOW =          81069.18
     GW BOUNDARY FLOW =           7994.40       GW BOUNDARY FLOW =             35.20

   INFLOWS - OUTFLOWS =        4204415.36     INFLOWS - OUTFLOWS =        -150055.34
             --------                                   --------

 TOTAL STORAGE CHANGE =        3950019.29         STORAGE CHANGE =        -153120.76
       --------------                             --------------
         LAND SURFACE =         579124.41           LAND SURFACE =        -205427.93
            SOIL ZONE =        5751153.89              SOIL ZONE =          45295.84
     UNSATURATED ZONE =       -2918799.83       UNSATURATED ZONE =           8511.56
       SATURATED ZONE =         538536.92         SATURATED ZONE =          -1500.30

 OVERALL BUDGET ERROR =         254396.07           BUDGET ERROR =           3065.42


  PERCENT DISCREPANCY =              1.83    PERCENT DISCREPANCY =              2.02



1
 SUMMARY VOLUMETRIC BUDGET FOR GSFLOW 
 DATE: 05 19 1991              CUMULATIVE TIME STEP:      19
 MODFLOW STRESS PERIOD      9     CURRENT TIME STEP:     231     ITERATIONS:       9

 -----------------------------------------------------------------------------------

   CUMULATIVE VOLUMES               L**3   RATES FOR THIS TIME STEP           L**3/T
   ------------------                      ------------------------

                                     IN                                         IN
                                     --                                         --
        PRECIPITATION =        1.4365D+07          PRECIPITATION =                  
           STREAMFLOW =                               STREAMFLOW =                  
     GW BOUNDARY FLOW =            118.85       GW BOUNDARY FLOW =              1.35


                                    OUT                                        OUT
                                    ---                                        ---
   EVAPOTRANSPIRATION =        4894949.15     EVAPOTRANSPIRATION =          20444.02
           STREAMFLOW =        5834819.37             STREAMFLOW =          59985.96
     GW BOUNDARY FLOW =           8238.90       GW BOUNDARY FLOW =             34.74

   INFLOWS - OUTFLOWS =        3627489.75     INFLOWS - OUTFLOWS =         -80463.37
             --------                                   --------

 TOTAL STORAGE CHANGE =        3355617.25         STORAGE CHANGE =         -82289.63
       --------------                             --------------
         LAND SURFACE =         228252.15           LAND SURFACE =         -22354.64
            SOIL ZONE =        5471806.55              SOIL ZONE =         -63712.27
     UNSATURATED ZONE =       -2872477.56       UNSATURATED ZONE =           5262.60
       SATURATED ZONE =         528031.75         SATURATED ZONE =          -1485.38

 OVERALL BUDGET ERROR =         271872.50           BUDGET ERROR =           1826.26


  PERCENT DISCREPANCY =              1.91    PERCENT DISCREPANCY =              2.24



1
 SUMMARY VOLUMETRIC BUDGET FOR GSFLOW 
 DATE: 05 26 1991              CUMULATIVE TIME STEP:      26
 MODFLOW STRESS PERIOD      9     CURRENT TIME STEP:     238     ITERATIONS:       8

 -----------------------------------------------------------------------------------

   CUMULATIVE VOLUMES               L**3   RATES FOR THIS TIME STEP           L**3/T
   ------------------                      ------------------------

                                     IN                                         IN
                                     --                                         --
        PRECIPITATION =        1.4426D+07          PRECIPITATION =                  
           STREAMFLOW =                               STREAMFLOW =                  
     GW BOUNDARY FLOW =            128.44       GW BOUNDARY FLOW =              1.39


                                    OUT                                        OUT
                                    ---                                        ---
   EVAPOTRANSPIRATION =        5579576.88     EVAPOTRANSPIRATION =          76899.63
           STREAMFLOW =        6175937.19             STREAMFLOW =          36126.19
     GW BOUNDARY FLOW =           8480.23       GW BOUNDARY FLOW =             34.20

   INFLOWS - OUTFLOWS =        2662631.74     INFLOWS - OUTFLOWS =        -113058.63
             --------                                   --------

 TOTAL STORAGE CHANGE =        2382318.84         STORAGE CHANGE =        -113743.49
       --------------                             --------------
         LAND SURFACE =          55233.90           LAND SURFACE =          -8157.37
            SOIL ZONE =        4665627.34              SOIL ZONE =        -103065.37
     UNSATURATED ZONE =       -2854116.98       UNSATURATED ZONE =           -389.09
       SATURATED ZONE =         515569.73         SATURATED ZONE =          -2131.73

 OVERALL BUDGET ERROR =         280312.90           BUDGET ERROR =            684.86


  PERCENT DISCREPANCY =              1.96    PERCENT DISCREPANCY =              0.60



1
 SUMMARY VOLUMETRIC BUDGET FOR GSFLOW 
 DATE: 06 02 1991              CUMULATIVE TIME STEP:       2
 MODFLOW STRESS PERIOD     10     CURRENT TIME STEP:     245     ITERATIONS:       8

 -----------------------------------------------------------------------------------

   CUMULATIVE VOLUMES               L**3   RATES FOR THIS TIME STEP           L**3/T
   ------------------                      ------------------------

                                     IN                                         IN
                                     --                                         --
        PRECIPITATION =        1.4671D+07          PRECIPITATION =                  
           STREAMFLOW =                               STREAMFLOW =                  
     GW BOUNDARY FLOW =            138.32       GW BOUNDARY FLOW =              1.43


                                    OUT                                        OUT
                                    ---                                        ---
   EVAPOTRANSPIRATION =        6168756.65     EVAPOTRANSPIRATION =         127565.49
           STREAMFLOW =        6396537.25             STREAMFLOW =          27717.11
     GW BOUNDARY FLOW =           8718.35       GW BOUNDARY FLOW =             33.88

   INFLOWS - OUTFLOWS =        2097100.87     INFLOWS - OUTFLOWS =        -155315.04
             --------                                   --------

 TOTAL STORAGE CHANGE =        1813172.04         STORAGE CHANGE =        -154634.35
       --------------                             --------------
         LAND SURFACE =          19760.70           LAND SURFACE =          -4094.13
            SOIL ZONE =        4164106.81              SOIL ZONE =        -144645.67
     UNSATURATED ZONE =       -2868457.11       UNSATURATED ZONE =          -3000.54
       SATURATED ZONE =         497756.27         SATURATED ZONE =          -2894.09

 OVERALL BUDGET ERROR =         283928.83           BUDGET ERROR =           -680.69


  PERCENT DISCREPANCY =              1.95    PERCENT DISCREPANCY =             -0.44



1
 SUMMARY VOLUMETRIC BUDGET FOR GSFLOW 
 DATE: 06 09 1991              CUMULATIVE TIME STEP:       9
 MODFLOW STRESS PERIOD     10     CURRENT TIME STEP:     252     ITERATIONS:       6

 -----------------------------------------------------------------------------------

   CUMULATIVE VOLUMES               L**3   RATES FOR THIS TIME STEP           L**3/T
   ------------------                      ------------------------

                                     IN                                         IN
                                     --                                         --
        PRECIPITATION =        1.4671D+07          PRECIPITATION =                  
           STREAMFLOW =                               STREAMFLOW =                  
     GW BOUNDARY FLOW =            148.50       GW BOUNDARY FLOW =              1.47


                                    OUT                                        OUT
                                    ---                                        ---
   EVAPOTRANSPIRATION =        6957236.05     EVAPOTRANSPIRATION =         172470.54
           STREAMFLOW =        6552803.45             STREAMFLOW =          18970.79
     GW BOUNDARY FLOW =           8954.03       GW BOUNDARY FLOW =             33.53

   INFLOWS - OUTFLOWS =        1152129.77     INFLOWS - OUTFLOWS =        -191473.38
             --------                                   --------

 TOTAL STORAGE CHANGE =         873691.77         STORAGE CHANGE =        -190013.82
       --------------                             --------------
         LAND SURFACE =           3957.39           LAND SURFACE =          -2186.13
            SOIL ZONE =        3298595.41              SOIL ZONE =        -177998.52
     UNSATURATED ZONE =       -2902626.22       UNSATURATED ZONE =          -5944.05
       SATURATED ZONE =         473759.30         SATURATED ZONE =          -3885.20

 OVERALL BUDGET ERROR =         278438.01           BUDGET ERROR =          -1459.56


  PERCENT DISCREPANCY =              1.92    PERCENT DISCREPANCY =             -0.77



1
 SUMMARY VOLUMETRIC BUDGET FOR GSFLOW 
 DATE: 06 16 1991              CUMULATIVE TIME STEP:      16
 MODFLOW STRESS PERIOD     10     CURRENT TIME STEP:     259     ITERATIONS:       7

 -----------------------------------------------------------------------------------

   CUMULATIVE VOLUMES               L**3   RATES FOR THIS TIME STEP           L**3/T
   ------------------                      ------------------------

                                     IN                                         IN
                                     --                                         --
        PRECIPITATION =        1.4671D+07          PRECIPITATION =                  
           STREAMFLOW =                               STREAMFLOW =                  
     GW BOUNDARY FLOW =            158.99       GW BOUNDARY FLOW =              1.52


                                    OUT                                        OUT
                                    ---                                        ---
   EVAPOTRANSPIRATION =        7973657.88     EVAPOTRANSPIRATION =         116909.53
           STREAMFLOW =        6655956.03             STREAMFLOW =          12841.93
     GW BOUNDARY FLOW =           9186.22       GW BOUNDARY FLOW =             33.05

   INFLOWS - OUTFLOWS =          32333.66     INFLOWS - OUTFLOWS =        -129782.99
             --------                                   --------

 TOTAL STORAGE CHANGE =        -236984.54         STORAGE CHANGE =        -128876.44
       --------------                             --------------
         LAND SURFACE =            106.65           LAND SURFACE =            -66.98
            SOIL ZONE =        2306063.98              SOIL ZONE =        -107542.72
     UNSATURATED ZONE =       -2984502.71       UNSATURATED ZONE =         -15719.34
       SATURATED ZONE =         441341.11         SATURATED ZONE =          -5547.47

 OVERALL BUDGET ERROR =         269318.20           BUDGET ERROR =           -906.55


  PERCENT DISCREPANCY =              1.82    PERCENT DISCREPANCY =             -0.70



1
 SUMMARY VOLUMETRIC BUDGET FOR GSFLOW 
 DATE: 06 23 1991              CUMULATIVE TIME STEP:      23
 MODFLOW STRESS PERIOD     10     CURRENT TIME STEP:     266     ITERATIONS:       7

 -----------------------------------------------------------------------------------

   CUMULATIVE VOLUMES               L**3   RATES FOR THIS TIME STEP           L**3/T
   ------------------                      ------------------------

                                     IN                                         IN
                                     --                                         --
        PRECIPITATION =        1.4671D+07          PRECIPITATION =                  
           STREAMFLOW =                               STREAMFLOW =                  
     GW BOUNDARY FLOW =            169.79       GW BOUNDARY FLOW =              1.56


                                    OUT                                        OUT
                                    ---                                        ---
   EVAPOTRANSPIRATION =        8515044.40     EVAPOTRANSPIRATION =          38644.05
           STREAMFLOW =        6738578.47             STREAMFLOW =          12036.78
     GW BOUNDARY FLOW =           9416.90       GW BOUNDARY FLOW =             32.93

   INFLOWS - OUTFLOWS =        -591895.19     INFLOWS - OUTFLOWS =         -50712.20
             --------                                   --------

 TOTAL STORAGE CHANGE =        -857668.22         STORAGE CHANGE =         -50436.72
       --------------                             --------------
         LAND SURFACE =             16.57           LAND SURFACE =             -3.65
            SOIL ZONE =        1839817.11              SOIL ZONE =         -31424.04
     UNSATURATED ZONE =       -3093882.82       UNSATURATED ZONE =         -12543.03
       SATURATED ZONE =         396373.96         SATURATED ZONE =          -6466.07

 OVERALL BUDGET ERROR =         265773.04           BUDGET ERROR =           -275.48


  PERCENT DISCREPANCY =              1.73    PERCENT DISCREPANCY =             -0.54



1
 SUMMARY VOLUMETRIC BUDGET FOR GSFLOW 
 DATE: 06 30 1991              CUMULATIVE TIME STEP:      30
 MODFLOW STRESS PERIOD     10     CURRENT TIME STEP:     273     ITERATIONS:       8

 -----------------------------------------------------------------------------------

[...]
                                    ---                                        ---
   EVAPOTRANSPIRATION =        7.2886D+07     EVAPOTRANSPIRATION =          72708.51
           STREAMFLOW =        6.9714D+07             STREAMFLOW =           7663.07
     GW BOUNDARY FLOW =          50924.66       GW BOUNDARY FLOW =             24.07

   INFLOWS - OUTFLOWS =       -9136689.23     INFLOWS - OUTFLOWS =         -80392.18
             --------                                   --------

 TOTAL STORAGE CHANGE =       -1.1985D+07         STORAGE CHANGE =         -80284.70
       --------------                             --------------
         LAND SURFACE =         179293.22           LAND SURFACE =         -11102.33
            SOIL ZONE =        1393177.41              SOIL ZONE =         -50507.35
     UNSATURATED ZONE =         -38531.37       UNSATURATED ZONE =         -11611.61
       SATURATED ZONE =       -1.3519D+07         SATURATED ZONE =          -7063.45

 OVERALL BUDGET ERROR =        2848515.84           BUDGET ERROR =           -107.48


  PERCENT DISCREPANCY =              1.98    PERCENT DISCREPANCY =             -0.13



1
 SUMMARY VOLUMETRIC BUDGET FOR GSFLOW 
 DATE: 09 03 1995              CUMULATIVE TIME STEP:       3
 MODFLOW STRESS PERIOD     61     CURRENT TIME STEP:    1799     ITERATIONS:       7

 -----------------------------------------------------------------------------------

   CUMULATIVE VOLUMES               L**3   RATES FOR THIS TIME STEP           L**3/T
   ------------------                      ------------------------

                                     IN                                         IN
                                     --                                         --
        PRECIPITATION =        1.3351D+08          PRECIPITATION =                  
           STREAMFLOW =                               STREAMFLOW =                  
     GW BOUNDARY FLOW =           5645.21       GW BOUNDARY FLOW =              3.56


                                    OUT                                        OUT
                                    ---                                        ---
   EVAPOTRANSPIRATION =        7.3365D+07     EVAPOTRANSPIRATION =          63183.85
           STREAMFLOW =        6.9763D+07             STREAMFLOW =           6596.25
     GW BOUNDARY FLOW =          51092.77       GW BOUNDARY FLOW =             23.98

   INFLOWS - OUTFLOWS =       -9664770.87     INFLOWS - OUTFLOWS =         -69800.52
             --------                                   --------

 TOTAL STORAGE CHANGE =       -1.2513D+07         STORAGE CHANGE =         -69779.45
       --------------                             --------------
         LAND SURFACE =         114525.52           LAND SURFACE =          -7766.54
            SOIL ZONE =        1060346.46              SOIL ZONE =         -43690.44
     UNSATURATED ZONE =        -114245.74       UNSATURATED ZONE =         -10476.22
       SATURATED ZONE =       -1.3574D+07         SATURATED ZONE =          -7846.29

 OVERALL BUDGET ERROR =        2848054.24           BUDGET ERROR =            -21.07


  PERCENT DISCREPANCY =              1.97    PERCENT DISCREPANCY =             -0.03



1
 SUMMARY VOLUMETRIC BUDGET FOR GSFLOW 
 DATE: 09 10 1995              CUMULATIVE TIME STEP:      10
 MODFLOW STRESS PERIOD     61     CURRENT TIME STEP:    1806     ITERATIONS:       7

 -----------------------------------------------------------------------------------

   CUMULATIVE VOLUMES               L**3   RATES FOR THIS TIME STEP           L**3/T
   ------------------                      ------------------------

                                     IN                                         IN
                                     --                                         --
        PRECIPITATION =        1.3351D+08          PRECIPITATION =                  
           STREAMFLOW =                               STREAMFLOW =                  
     GW BOUNDARY FLOW =           5670.50       GW BOUNDARY FLOW =              3.65


                                    OUT                                        OUT
                                    ---                                        ---
   EVAPOTRANSPIRATION =        7.3719D+07     EVAPOTRANSPIRATION =          47308.97
           STREAMFLOW =        6.9810D+07             STREAMFLOW =           6634.23
     GW BOUNDARY FLOW =          51260.74       GW BOUNDARY FLOW =             23.98

   INFLOWS - OUTFLOWS =       -1.0066D+07     INFLOWS - OUTFLOWS =         -53963.54
             --------                                   --------

 TOTAL STORAGE CHANGE =       -1.2914D+07         STORAGE CHANGE =         -53947.73
       --------------                             --------------
         LAND SURFACE =          75925.35           LAND SURFACE =          -4673.87
            SOIL ZONE =         819084.74              SOIL ZONE =         -31589.17
     UNSATURATED ZONE =        -184460.33       UNSATURATED ZONE =         -10182.63
       SATURATED ZONE =       -1.3625D+07         SATURATED ZONE =          -7502.09

 OVERALL BUDGET ERROR =        2847944.85           BUDGET ERROR =            -15.81


  PERCENT DISCREPANCY =              1.96    PERCENT DISCREPANCY =             -0.03



1
 SUMMARY VOLUMETRIC BUDGET FOR GSFLOW 
 DATE: 09 17 1995              CUMULATIVE TIME STEP:      17
 MODFLOW STRESS PERIOD     61     CURRENT TIME STEP:    1813     ITERATIONS:       7

 -----------------------------------------------------------------------------------

   CUMULATIVE VOLUMES               L**3   RATES FOR THIS TIME STEP           L**3/T
   ------------------                      ------------------------

                                     IN                                         IN
                                     --                                         --
        PRECIPITATION =        1.3351D+08          PRECIPITATION =                  
           STREAMFLOW =                               STREAMFLOW =                  
     GW BOUNDARY FLOW =           5696.41       GW BOUNDARY FLOW =              3.74


                                    OUT                                        OUT
                                    ---                                        ---
   EVAPOTRANSPIRATION =        7.4100D+07     EVAPOTRANSPIRATION =          43189.29
           STREAMFLOW =        6.9849D+07             STREAMFLOW =           5798.89
     GW BOUNDARY FLOW =          51427.91       GW BOUNDARY FLOW =             23.90

   INFLOWS - OUTFLOWS =       -1.0487D+07     INFLOWS - OUTFLOWS =         -49008.35
             --------                                   --------

 TOTAL STORAGE CHANGE =       -1.3335D+07         STORAGE CHANGE =         -48992.38
       --------------                             --------------
         LAND SURFACE =          44186.54           LAND SURFACE =          -3043.17
            SOIL ZONE =         573251.74              SOIL ZONE =         -26762.67
     UNSATURATED ZONE =        -259719.17       UNSATURATED ZONE =         -10427.03
       SATURATED ZONE =       -1.3692D+07         SATURATED ZONE =          -8759.53

 OVERALL BUDGET ERROR =        2847797.20           BUDGET ERROR =            -15.97


  PERCENT DISCREPANCY =              1.96    PERCENT DISCREPANCY =             -0.03



1
 SUMMARY VOLUMETRIC BUDGET FOR GSFLOW 
 DATE: 09 24 1995              CUMULATIVE TIME STEP:      24
 MODFLOW STRESS PERIOD     61     CURRENT TIME STEP:    1820     ITERATIONS:       7

 -----------------------------------------------------------------------------------

   CUMULATIVE VOLUMES               L**3   RATES FOR THIS TIME STEP           L**3/T
   ------------------                      ------------------------

                                     IN                                         IN
                                     --                                         --
        PRECIPITATION =        1.3351D+08          PRECIPITATION =                  
           STREAMFLOW =                               STREAMFLOW =                  
     GW BOUNDARY FLOW =           5722.92       GW BOUNDARY FLOW =              3.82


                                    OUT                                        OUT
                                    ---                                        ---
   EVAPOTRANSPIRATION =        7.4366D+07     EVAPOTRANSPIRATION =          27518.43
           STREAMFLOW =        6.9891D+07             STREAMFLOW =           6433.00
     GW BOUNDARY FLOW =          51595.21       GW BOUNDARY FLOW =             23.95

   INFLOWS - OUTFLOWS =       -1.0794D+07     INFLOWS - OUTFLOWS =         -33971.55
             --------                                   --------

 TOTAL STORAGE CHANGE =       -1.3642D+07         STORAGE CHANGE =         -33961.54
       --------------                             --------------
         LAND SURFACE =          28055.76           LAND SURFACE =          -1559.79
            SOIL ZONE =         416003.96              SOIL ZONE =         -15677.42
     UNSATURATED ZONE =        -330369.49       UNSATURATED ZONE =          -8995.94
       SATURATED ZONE =       -1.3755D+07         SATURATED ZONE =          -7728.42

 OVERALL BUDGET ERROR =        2847694.95           BUDGET ERROR =            -10.02


  PERCENT DISCREPANCY =              1.95    PERCENT DISCREPANCY =             -0.03



1
 SUMMARY VOLUMETRIC BUDGET FOR GSFLOW 
 DATE: 10 01 1995              CUMULATIVE TIME STEP:       1
 MODFLOW STRESS PERIOD     62     CURRENT TIME STEP:    1827     ITERATIONS:       6

 -----------------------------------------------------------------------------------

   CUMULATIVE VOLUMES               L**3   RATES FOR THIS TIME STEP           L**3/T
   ------------------                      ------------------------

                                     IN                                         IN
                                     --                                         --
        PRECIPITATION =        1.3351D+08          PRECIPITATION =                  
           STREAMFLOW =                               STREAMFLOW =                  
     GW BOUNDARY FLOW =           5749.99       GW BOUNDARY FLOW =              3.90


                                    OUT                                        OUT
                                    ---                                        ---
   EVAPOTRANSPIRATION =        7.4482D+07     EVAPOTRANSPIRATION =          16824.59
           STREAMFLOW =        6.9942D+07             STREAMFLOW =           7421.28
     GW BOUNDARY FLOW =          51763.40       GW BOUNDARY FLOW =             24.03

   INFLOWS - OUTFLOWS =       -1.0962D+07     INFLOWS - OUTFLOWS =         -24266.00
             --------                                   --------

 TOTAL STORAGE CHANGE =       -1.3810D+07         STORAGE CHANGE =         -24263.61
       --------------                             --------------
         LAND SURFACE =          22241.70           LAND SURFACE =           -699.89
            SOIL ZONE =         352608.65              SOIL ZONE =          -9279.42
     UNSATURATED ZONE =        -386889.28       UNSATURATED ZONE =          -7927.55
       SATURATED ZONE =       -1.3798D+07         SATURATED ZONE =          -6356.78

 OVERALL BUDGET ERROR =        2847669.62           BUDGET ERROR =             -2.39


  PERCENT DISCREPANCY =              1.95    PERCENT DISCREPANCY =             -0.01



1
 SUMMARY VOLUMETRIC BUDGET FOR GSFLOW 
 DATE: 10 08 1995              CUMULATIVE TIME STEP:       8
 MODFLOW STRESS PERIOD     62     CURRENT TIME STEP:    1834     ITERATIONS:       6

 -----------------------------------------------------------------------------------

   CUMULATIVE VOLUMES               L**3   RATES FOR THIS TIME STEP           L**3/T
   ------------------                      ------------------------

                                     IN                                         IN
                                     --                                         --
        PRECIPITATION =        1.3351D+08          PRECIPITATION =                  
           STREAMFLOW =                               STREAMFLOW =                  
     GW BOUNDARY FLOW =           5777.60       GW BOUNDARY FLOW =              3.98


                                    OUT                                        OUT
                                    ---                                        ---
   EVAPOTRANSPIRATION =        7.4605D+07     EVAPOTRANSPIRATION =          15523.21
           STREAMFLOW =        6.9993D+07             STREAMFLOW =           7328.81
     GW BOUNDARY FLOW =          51931.55       GW BOUNDARY FLOW =             24.03

   INFLOWS - OUTFLOWS =       -1.1136D+07     INFLOWS - OUTFLOWS =         -22872.08
             --------                                   --------

 TOTAL STORAGE CHANGE =       -1.3984D+07         STORAGE CHANGE =         -22869.00
       --------------                             --------------
         LAND SURFACE =          18179.46           LAND SURFACE =           -628.45
            SOIL ZONE =         284753.58              SOIL ZONE =          -8224.80
     UNSATURATED ZONE =        -440881.49       UNSATURATED ZONE =          -7326.25
       SATURATED ZONE =       -1.3846D+07         SATURATED ZONE =          -6689.53

 OVERALL BUDGET ERROR =        2847635.87           BUDGET ERROR =             -3.08


  PERCENT DISCREPANCY =              1.95    PERCENT DISCREPANCY =             -0.01



1
 SUMMARY VOLUMETRIC BUDGET FOR GSFLOW 
 DATE: 10 15 1995              CUMULATIVE TIME STEP:      15
 MODFLOW STRESS PERIOD     62     CURRENT TIME STEP:    1841     ITERATIONS:       5

 -----------------------------------------------------------------------------------

   CUMULATIVE VOLUMES               L**3   RATES FOR THIS TIME STEP           L**3/T
   ------------------                      ------------------------

                                     IN                                         IN
                                     --                                         --
        PRECIPITATION =        1.3351D+08          PRECIPITATION =                  
           STREAMFLOW =                               STREAMFLOW =                  
     GW BOUNDARY FLOW =           5805.70       GW BOUNDARY FLOW =              4.04


                                    OUT                                        OUT
                                    ---                                        ---
   EVAPOTRANSPIRATION =        7.4722D+07     EVAPOTRANSPIRATION =          18123.16
           STREAMFLOW =        7.0043D+07             STREAMFLOW =           6921.66
     GW BOUNDARY FLOW =          52099.65       GW BOUNDARY FLOW =             24.00

   INFLOWS - OUTFLOWS =       -1.1302D+07     INFLOWS - OUTFLOWS =         -25064.78
             --------                                   --------

 TOTAL STORAGE CHANGE =       -1.4150D+07         STORAGE CHANGE =         -25060.54
       --------------                             --------------
         LAND SURFACE =          14037.99           LAND SURFACE =           -696.58
            SOIL ZONE =         223621.20              SOIL ZONE =          -9343.36
     UNSATURATED ZONE =        -489971.93       UNSATURATED ZONE =          -6926.01
       SATURATED ZONE =       -1.3898D+07         SATURATED ZONE =          -8094.61

 OVERALL BUDGET ERROR =        2847596.35           BUDGET ERROR =             -4.24


  PERCENT DISCREPANCY =              1.95    PERCENT DISCREPANCY =             -0.02



1
 SUMMARY VOLUMETRIC BUDGET FOR GSFLOW 
 DATE: 10 22 1995              CUMULATIVE TIME STEP:      22
 MODFLOW STRESS PERIOD     62     CURRENT TIME STEP:    1848     ITERATIONS:      13

 -----------------------------------------------------------------------------------

   CUMULATIVE VOLUMES               L**3   RATES FOR THIS TIME STEP           L**3/T
   ------------------                      ------------------------

                                     IN                                         IN
                                     --                                         --
        PRECIPITATION =        1.3351D+08          PRECIPITATION =                  
           STREAMFLOW =                               STREAMFLOW =                  
     GW BOUNDARY FLOW =           5834.25       GW BOUNDARY FLOW =              4.11


                                    OUT                                        OUT
                                    ---                                        ---
   EVAPOTRANSPIRATION =        7.4826D+07     EVAPOTRANSPIRATION =           4714.85
           STREAMFLOW =        7.0093D+07             STREAMFLOW =           8088.20
     GW BOUNDARY FLOW =          52267.79       GW BOUNDARY FLOW =             24.11

   INFLOWS - OUTFLOWS =       -1.1456D+07     INFLOWS - OUTFLOWS =         -12823.06
             --------                                   --------

 TOTAL STORAGE CHANGE =       -1.4304D+07         STORAGE CHANGE =         -12823.80
       --------------                             --------------
         LAND SURFACE =          10452.80           LAND SURFACE =             -6.45
            SOIL ZONE =         172142.93              SOIL ZONE =          -2082.61
     UNSATURATED ZONE =        -535509.99       UNSATURATED ZONE =          -6042.37
       SATURATED ZONE =       -1.3951D+07         SATURATED ZONE =          -4692.40

 OVERALL BUDGET ERROR =        2847560.38           BUDGET ERROR =              0.74


  PERCENT DISCREPANCY =              1.95    PERCENT DISCREPANCY =              0.01



1
 SUMMARY VOLUMETRIC BUDGET FOR GSFLOW 
 DATE: 10 29 1995              CUMULATIVE TIME STEP:      29
 MODFLOW STRESS PERIOD     62     CURRENT TIME STEP:    1855     ITERATIONS:       6

 -----------------------------------------------------------------------------------

   CUMULATIVE VOLUMES               L**3   RATES FOR THIS TIME STEP           L**3/T
   ------------------                      ------------------------

                                     IN                                         IN
                                     --                                         --
        PRECIPITATION =        1.3351D+08          PRECIPITATION =                  
           STREAMFLOW =                               STREAMFLOW =                  
     GW BOUNDARY FLOW =           5863.23       GW BOUNDARY FLOW =              4.17


                                    OUT                                        OUT
                                    ---                                        ---
   EVAPOTRANSPIRATION =        7.4891D+07     EVAPOTRANSPIRATION =          11353.39
           STREAMFLOW =        7.0147D+07             STREAMFLOW =           7430.08
     GW BOUNDARY FLOW =          52436.34       GW BOUNDARY FLOW =             24.06

   INFLOWS - OUTFLOWS =       -1.1576D+07     INFLOWS - OUTFLOWS =         -18803.36
             --------                                   --------

 TOTAL STORAGE CHANGE =       -1.4424D+07         STORAGE CHANGE =         -18800.65
       --------------                             --------------
         LAND SURFACE =           9254.99           LAND SURFACE =           -359.13
            SOIL ZONE =         141826.62              SOIL ZONE =          -5080.84
     UNSATURATED ZONE =        -578648.65       UNSATURATED ZONE =          -6161.35
       SATURATED ZONE =       -1.3996D+07         SATURATED ZONE =          -7199.36

 OVERALL BUDGET ERROR =        2847547.37           BUDGET ERROR =             -2.71


  PERCENT DISCREPANCY =              1.94    PERCENT DISCREPANCY =             -0.01



