1
 SUMMARY VOLUMETRIC BUDGET FOR GSFLOW 
 DATE: 10 07 1990              CUMULATIVE TIME STEP:       7
 MODFLOW STRESS PERIOD      2     CURRENT TIME STEP:       7     ITERATIONS:       7

 -----------------------------------------------------------------------------------

   CUMULATIVE VOLUMES               L**3   RATES FOR THIS TIME STEP           L**3/T
   ------------------                      ------------------------

                                     IN                                         IN
                                     --                                         --
        PRECIPITATION =                            PRECIPITATION =                  
           STREAMFLOW =                               STREAMFLOW =                  
     GW BOUNDARY FLOW =                         GW BOUNDARY FLOW =                  


                                    OUT                                        OUT
                                    ---                                        ---
   EVAPOTRANSPIRATION =         382488.20     EVAPOTRANSPIRATION =          12595.52
           STREAMFLOW =          45685.28             STREAMFLOW =           8118.02
     GW BOUNDARY FLOW =            252.78       GW BOUNDARY FLOW =             36.30

   INFLOWS - OUTFLOWS =        -428426.26     INFLOWS - OUTFLOWS =         -20749.84
             --------                                   --------

 TOTAL STORAGE CHANGE =        -426950.28         STORAGE CHANGE =         -20721.64
       --------------                             --------------
         LAND SURFACE =                             LAND SURFACE =                  
            SOIL ZONE =         -33335.62              SOIL ZONE =          -1004.93
     UNSATURATED ZONE =        -500605.56       UNSATURATED ZONE =         -34262.62
       SATURATED ZONE =         106990.91         SATURATED ZONE =          14545.91

 OVERALL BUDGET ERROR =          -1475.99           BUDGET ERROR =            -28.21


  PERCENT DISCREPANCY =             -0.35    PERCENT DISCREPANCY =             -0.14



1
 SUMMARY VOLUMETRIC BUDGET FOR GSFLOW 
 DATE: 10 14 1990              CUMULATIVE TIME STEP:      14
 MODFLOW STRESS PERIOD      2     CURRENT TIME STEP:      14     ITERATIONS:       6

 -----------------------------------------------------------------------------------

   CUMULATIVE VOLUMES               L**3   RATES FOR THIS TIME STEP           L**3/T
   ------------------                      ------------------------

                                     IN                                         IN
                                     --                                         --
        PRECIPITATION =                            PRECIPITATION =                  
           STREAMFLOW =                               STREAMFLOW =                  
     GW BOUNDARY FLOW =                         GW BOUNDARY FLOW =                  


                                    OUT                                        OUT
                                    ---                                        ---
   EVAPOTRANSPIRATION =         661838.41     EVAPOTRANSPIRATION =          42904.18
           STREAMFLOW =         100423.61             STREAMFLOW =           7406.74
     GW BOUNDARY FLOW =            506.62       GW BOUNDARY FLOW =             36.24

   INFLOWS - OUTFLOWS =        -762768.64     INFLOWS - OUTFLOWS =         -50347.16
             --------                                   --------

 TOTAL STORAGE CHANGE =        -761007.50         STORAGE CHANGE =         -50326.18
       --------------                             --------------
         LAND SURFACE =                             LAND SURFACE =                  
            SOIL ZONE =         -58141.47              SOIL ZONE =          -4431.92
     UNSATURATED ZONE =        -875037.45       UNSATURATED ZONE =         -52611.78
       SATURATED ZONE =         172171.41         SATURATED ZONE =           6717.52

 OVERALL BUDGET ERROR =          -1761.13           BUDGET ERROR =            -20.98


  PERCENT DISCREPANCY =             -0.23    PERCENT DISCREPANCY =             -0.04



1
 SUMMARY VOLUMETRIC BUDGET FOR GSFLOW 
 DATE: 10 21 1990              CUMULATIVE TIME STEP:      21
 MODFLOW STRESS PERIOD      2     CURRENT TIME STEP:      21     ITERATIONS:       6

 -----------------------------------------------------------------------------------

   CUMULATIVE VOLUMES               L**3   RATES FOR THIS TIME STEP           L**3/T
   ------------------                      ------------------------

                                     IN                                         IN
                                     --                                         --
        PRECIPITATION =         188432.87          PRECIPITATION =                  
           STREAMFLOW =                               STREAMFLOW =                  
     GW BOUNDARY FLOW =                         GW BOUNDARY FLOW =                  


                                    OUT                                        OUT
                                    ---                                        ---
   EVAPOTRANSPIRATION =         804754.61     EVAPOTRANSPIRATION =          37118.94
           STREAMFLOW =         163342.98             STREAMFLOW =          10134.22
     GW BOUNDARY FLOW =            760.80       GW BOUNDARY FLOW =             36.37

   INFLOWS - OUTFLOWS =        -780425.53     INFLOWS - OUTFLOWS =         -47289.52
             --------                                   --------

 TOTAL STORAGE CHANGE =        -778930.01         STORAGE CHANGE =         -47294.04
       --------------                             --------------
         LAND SURFACE =          15977.62           LAND SURFACE =         -34861.64
            SOIL ZONE =          56240.75              SOIL ZONE =          -1274.18
     UNSATURATED ZONE =       -1087051.51       UNSATURATED ZONE =         -21841.64
       SATURATED ZONE =         235903.13         SATURATED ZONE =          10683.42

 OVERALL BUDGET ERROR =          -1495.52           BUDGET ERROR =              4.51


  PERCENT DISCREPANCY =             -0.15    PERCENT DISCREPANCY =              0.01



1
 SUMMARY VOLUMETRIC BUDGET FOR GSFLOW 
 DATE: 10 28 1990              CUMULATIVE TIME STEP:      28
 MODFLOW STRESS PERIOD      2     CURRENT TIME STEP:      28     ITERATIONS:       7

 -----------------------------------------------------------------------------------

   CUMULATIVE VOLUMES               L**3   RATES FOR THIS TIME STEP           L**3/T
   ------------------                      ------------------------

                                     IN                                         IN
                                     --                                         --
        PRECIPITATION =         188432.87          PRECIPITATION =                  
           STREAMFLOW =                               STREAMFLOW =                  
     GW BOUNDARY FLOW =                         GW BOUNDARY FLOW =                  


                                    OUT                                        OUT
                                    ---                                        ---
   EVAPOTRANSPIRATION =         930552.83     EVAPOTRANSPIRATION =          11279.92
           STREAMFLOW =         224895.69             STREAMFLOW =           8972.24
     GW BOUNDARY FLOW =           1013.99       GW BOUNDARY FLOW =             36.13

   INFLOWS - OUTFLOWS =        -968029.65     INFLOWS - OUTFLOWS =         -20288.29
             --------                                   --------

 TOTAL STORAGE CHANGE =        -966520.52         STORAGE CHANGE =         -20288.02
       --------------                             --------------
         LAND SURFACE =                             LAND SURFACE =                  
            SOIL ZONE =          27095.58              SOIL ZONE =          -3304.41
     UNSATURATED ZONE =       -1271404.35       UNSATURATED ZONE =         -23160.88
       SATURATED ZONE =         277788.24         SATURATED ZONE =           6177.26

 OVERALL BUDGET ERROR =          -1509.13           BUDGET ERROR =             -0.27


  PERCENT DISCREPANCY =             -0.13    PERCENT DISCREPANCY =             -0.00



1
 SUMMARY VOLUMETRIC BUDGET FOR GSFLOW 
 DATE: 11 04 1990              CUMULATIVE TIME STEP:       4
 MODFLOW STRESS PERIOD      3     CURRENT TIME STEP:      35     ITERATIONS:       6

 -----------------------------------------------------------------------------------

   CUMULATIVE VOLUMES               L**3   RATES FOR THIS TIME STEP           L**3/T
   ------------------                      ------------------------

                                     IN                                         IN
                                     --                                         --
        PRECIPITATION =         703113.06          PRECIPITATION =                  
           STREAMFLOW =                               STREAMFLOW =                  
     GW BOUNDARY FLOW =                         GW BOUNDARY FLOW =                  


                                    OUT                                        OUT
                                    ---                                        ---
   EVAPOTRANSPIRATION =         990397.31     EVAPOTRANSPIRATION =          26063.09
           STREAMFLOW =         295967.19             STREAMFLOW =          10657.59
     GW BOUNDARY FLOW =           1267.05       GW BOUNDARY FLOW =             36.14

   INFLOWS - OUTFLOWS =        -584518.49     INFLOWS - OUTFLOWS =         -36756.83
             --------                                   --------

 TOTAL STORAGE CHANGE =        -584296.11         STORAGE CHANGE =         -37073.85
       --------------                             --------------
         LAND SURFACE =          71009.70           LAND SURFACE =         -84159.07
            SOIL ZONE =         423158.92              SOIL ZONE =          57737.57
     UNSATURATED ZONE =       -1416969.36       UNSATURATED ZONE =         -20048.37
       SATURATED ZONE =         338504.63         SATURATED ZONE =           9396.01

 OVERALL BUDGET ERROR =           -222.39           BUDGET ERROR =            317.02


  PERCENT DISCREPANCY =             -0.02    PERCENT DISCREPANCY =              0.86



1
 SUMMARY VOLUMETRIC BUDGET FOR GSFLOW 
 DATE: 11 11 1990              CUMULATIVE TIME STEP:      11
 MODFLOW STRESS PERIOD      3     CURRENT TIME STEP:      42     ITERATIONS:       6

 -----------------------------------------------------------------------------------

   CUMULATIVE VOLUMES               L**3   RATES FOR THIS TIME STEP           L**3/T
   ------------------                      ------------------------

                                     IN                                         IN
                                     --                                         --
        PRECIPITATION =         703113.06          PRECIPITATION =                  
           STREAMFLOW =                               STREAMFLOW =                  
     GW BOUNDARY FLOW =                         GW BOUNDARY FLOW =                  


                                    OUT                                        OUT
                                    ---                                        ---
   EVAPOTRANSPIRATION =        1063773.72     EVAPOTRANSPIRATION =          12399.57
           STREAMFLOW =         367011.97             STREAMFLOW =           9638.92
     GW BOUNDARY FLOW =           1519.15       GW BOUNDARY FLOW =             35.92

   INFLOWS - OUTFLOWS =        -729191.78     INFLOWS - OUTFLOWS =         -22074.41
             --------                                   --------

 TOTAL STORAGE CHANGE =        -728993.98         STORAGE CHANGE =         -22077.15
       --------------                             --------------
         LAND SURFACE =            295.92           LAND SURFACE =           -859.89
            SOIL ZONE =         439608.68              SOIL ZONE =          -6121.24
     UNSATURATED ZONE =       -1556651.15       UNSATURATED ZONE =         -19971.69
       SATURATED ZONE =         387752.54         SATURATED ZONE =           4875.66

 OVERALL BUDGET ERROR =           -197.80           BUDGET ERROR =              2.74


  PERCENT DISCREPANCY =             -0.01    PERCENT DISCREPANCY =              0.01



1
 SUMMARY VOLUMETRIC BUDGET FOR GSFLOW 
 DATE: 11 18 1990              CUMULATIVE TIME STEP:      18
 MODFLOW STRESS PERIOD      3     CURRENT TIME STEP:      49     ITERATIONS:       6

 -----------------------------------------------------------------------------------

   CUMULATIVE VOLUMES               L**3   RATES FOR THIS TIME STEP           L**3/T
   ------------------                      ------------------------

                                     IN                                         IN
                                     --                                         --
        PRECIPITATION =         747883.35          PRECIPITATION =                  
           STREAMFLOW =                               STREAMFLOW =                  
     GW BOUNDARY FLOW =                         GW BOUNDARY FLOW =                  


                                    OUT                                        OUT
                                    ---                                        ---
   EVAPOTRANSPIRATION =        1133422.66     EVAPOTRANSPIRATION =           5430.42
           STREAMFLOW =         438801.52             STREAMFLOW =          10692.28
     GW BOUNDARY FLOW =           1770.47       GW BOUNDARY FLOW =             35.88

   INFLOWS - OUTFLOWS =        -826111.30     INFLOWS - OUTFLOWS =         -16158.58
             --------                                   --------

 TOTAL STORAGE CHANGE =        -825934.11         STORAGE CHANGE =         -16162.17
       --------------                             --------------
         LAND SURFACE =          10077.61           LAND SURFACE =          -4199.79
            SOIL ZONE =         421728.62              SOIL ZONE =           -679.91
     UNSATURATED ZONE =       -1690167.28       UNSATURATED ZONE =         -18631.05
       SATURATED ZONE =         432426.89         SATURATED ZONE =           7348.58

 OVERALL BUDGET ERROR =           -177.18           BUDGET ERROR =              3.59


  PERCENT DISCREPANCY =             -0.01    PERCENT DISCREPANCY =              0.02



1
 SUMMARY VOLUMETRIC BUDGET FOR GSFLOW 
 DATE: 11 25 1990              CUMULATIVE TIME STEP:      25
 MODFLOW STRESS PERIOD      3     CURRENT TIME STEP:      56     ITERATIONS:       6

 -----------------------------------------------------------------------------------

   CUMULATIVE VOLUMES               L**3   RATES FOR THIS TIME STEP           L**3/T
   ------------------                      ------------------------

                                     IN                                         IN
                                     --                                         --
        PRECIPITATION =        1009043.38          PRECIPITATION =         186542.88
           STREAMFLOW =                               STREAMFLOW =                  
     GW BOUNDARY FLOW =                         GW BOUNDARY FLOW =                  


                                    OUT                                        OUT
                                    ---                                        ---
   EVAPOTRANSPIRATION =        1194176.76     EVAPOTRANSPIRATION =           3835.90
           STREAMFLOW =         514854.02             STREAMFLOW =          10887.52
     GW BOUNDARY FLOW =           2021.41       GW BOUNDARY FLOW =             35.79

   INFLOWS - OUTFLOWS =        -702008.81     INFLOWS - OUTFLOWS =         171783.67
             --------                                   --------

 TOTAL STORAGE CHANGE =        -702218.81         STORAGE CHANGE =         171416.07
       --------------                             --------------
         LAND SURFACE =          92124.67           LAND SURFACE =          75233.82
            SOIL ZONE =         541484.36              SOIL ZONE =         107766.69
     UNSATURATED ZONE =       -1817791.19       UNSATURATED ZONE =         -17926.24
       SATURATED ZONE =         481963.28         SATURATED ZONE =           6341.80

 OVERALL BUDGET ERROR =            210.00           BUDGET ERROR =            367.60


  PERCENT DISCREPANCY =              0.01    PERCENT DISCREPANCY =              0.20



1
 SUMMARY VOLUMETRIC BUDGET FOR GSFLOW 
 DATE: 12 02 1990              CUMULATIVE TIME STEP:       2
 MODFLOW STRESS PERIOD      4     CURRENT TIME STEP:      63     ITERATIONS:       6

 -----------------------------------------------------------------------------------

   CUMULATIVE VOLUMES               L**3   RATES FOR THIS TIME STEP           L**3/T
   ------------------                      ------------------------

                                     IN                                         IN
                                     --                                         --
        PRECIPITATION =        1449284.55          PRECIPITATION =                  
           STREAMFLOW =                               STREAMFLOW =                  
     GW BOUNDARY FLOW =                         GW BOUNDARY FLOW =                  


                                    OUT                                        OUT
                                    ---                                        ---
   EVAPOTRANSPIRATION =        1201746.24     EVAPOTRANSPIRATION =            374.89
           STREAMFLOW =         592111.44             STREAMFLOW =          11081.99
     GW BOUNDARY FLOW =           2271.90       GW BOUNDARY FLOW =             35.77

   INFLOWS - OUTFLOWS =        -346845.03     INFLOWS - OUTFLOWS =         -11492.65
             --------                                   --------

 TOTAL STORAGE CHANGE =        -347368.94         STORAGE CHANGE =         -11494.49
       --------------                             --------------
         LAND SURFACE =         493448.43           LAND SURFACE =           -453.37
            SOIL ZONE =         572854.11              SOIL ZONE =            131.64
     UNSATURATED ZONE =       -1940657.53       UNSATURATED ZONE =         -17259.45
       SATURATED ZONE =         526985.97         SATURATED ZONE =           6086.68

 OVERALL BUDGET ERROR =            523.91           BUDGET ERROR =              1.84


  PERCENT DISCREPANCY =              0.03    PERCENT DISCREPANCY =              0.02



1
 SUMMARY VOLUMETRIC BUDGET FOR GSFLOW 
 DATE: 12 09 1990              CUMULATIVE TIME STEP:       9
 MODFLOW STRESS PERIOD      4     CURRENT TIME STEP:      70     ITERATIONS:       6

 -----------------------------------------------------------------------------------

   CUMULATIVE VOLUMES               L**3   RATES FOR THIS TIME STEP           L**3/T
   ------------------                      ------------------------

                                     IN                                         IN
                                     --                                         --
        PRECIPITATION =        1449284.55          PRECIPITATION =                  
           STREAMFLOW =                               STREAMFLOW =                  
     GW BOUNDARY FLOW =                         GW BOUNDARY FLOW =                  


                                    OUT                                        OUT
                                    ---                                        ---
   EVAPOTRANSPIRATION =        1280234.55     EVAPOTRANSPIRATION =          14145.38
           STREAMFLOW =         669857.07             STREAMFLOW =          10897.92
     GW BOUNDARY FLOW =           2521.86       GW BOUNDARY FLOW =             35.64

   INFLOWS - OUTFLOWS =        -503328.93     INFLOWS - OUTFLOWS =         -25078.94
             --------                                   --------

 TOTAL STORAGE CHANGE =        -504943.83         STORAGE CHANGE =         -25084.21
       --------------                             --------------
         LAND SURFACE =          66382.66           LAND SURFACE =         -46525.53
            SOIL ZONE =         923787.98              SOIL ZONE =          34080.22
     UNSATURATED ZONE =       -2058469.08       UNSATURATED ZONE =         -16494.22
       SATURATED ZONE =         563354.50         SATURATED ZONE =           3855.31

 OVERALL BUDGET ERROR =           1614.89           BUDGET ERROR =              5.27


  PERCENT DISCREPANCY =              0.08    PERCENT DISCREPANCY =              0.02



1
 SUMMARY VOLUMETRIC BUDGET FOR GSFLOW 
 DATE: 12 16 1990              CUMULATIVE TIME STEP:      16
 MODFLOW STRESS PERIOD      4     CURRENT TIME STEP:      77     ITERATIONS:       6

 -----------------------------------------------------------------------------------

   CUMULATIVE VOLUMES               L**3   RATES FOR THIS TIME STEP           L**3/T
   ------------------                      ------------------------

                                     IN                                         IN
                                     --                                         --
        PRECIPITATION =        1804962.84          PRECIPITATION =                  
           STREAMFLOW =                               STREAMFLOW =                  
     GW BOUNDARY FLOW =                         GW BOUNDARY FLOW =                  


                                    OUT                                        OUT
                                    ---                                        ---
   EVAPOTRANSPIRATION =        1308855.30     EVAPOTRANSPIRATION =                  
           STREAMFLOW =         749568.10             STREAMFLOW =          11519.22
     GW BOUNDARY FLOW =           2771.27       GW BOUNDARY FLOW =             35.61

   INFLOWS - OUTFLOWS =        -256231.83     INFLOWS - OUTFLOWS =         -11554.83
             --------                                   --------

 TOTAL STORAGE CHANGE =        -258358.41         STORAGE CHANGE =         -11555.36
       --------------                             --------------
         LAND SURFACE =         256077.36           LAND SURFACE =                  
            SOIL ZONE =        1063406.47              SOIL ZONE =            -13.69
     UNSATURATED ZONE =       -2171848.87       UNSATURATED ZONE =         -15945.17
       SATURATED ZONE =         594006.47         SATURATED ZONE =           4403.50

 OVERALL BUDGET ERROR =           2126.59           BUDGET ERROR =              0.53


  PERCENT DISCREPANCY =              0.10    PERCENT DISCREPANCY =              0.00



1
 SUMMARY VOLUMETRIC BUDGET FOR GSFLOW 
 DATE: 12 23 1990              CUMULATIVE TIME STEP:      23
 MODFLOW STRESS PERIOD      4     CURRENT TIME STEP:      84     ITERATIONS:       6

 -----------------------------------------------------------------------------------

   CUMULATIVE VOLUMES               L**3   RATES FOR THIS TIME STEP           L**3/T
   ------------------                      ------------------------

                                     IN                                         IN
                                     --                                         --
        PRECIPITATION =        2276236.55          PRECIPITATION =                  
           STREAMFLOW =                               STREAMFLOW =                  
     GW BOUNDARY FLOW =              0.08       GW BOUNDARY FLOW =              0.04


                                    OUT                                        OUT
                                    ---                                        ---
   EVAPOTRANSPIRATION =        1310230.02     EVAPOTRANSPIRATION =                  
           STREAMFLOW =         830405.53             STREAMFLOW =          11568.24
     GW BOUNDARY FLOW =           3020.31       GW BOUNDARY FLOW =             35.57

   INFLOWS - OUTFLOWS =         132580.77     INFLOWS - OUTFLOWS =         -11603.77
             --------                                   --------

 TOTAL STORAGE CHANGE =         130453.71         STORAGE CHANGE =         -11603.45
       --------------                             --------------
         LAND SURFACE =         725980.66           LAND SURFACE =                  
            SOIL ZONE =        1063643.14              SOIL ZONE =             62.14
     UNSATURATED ZONE =       -2281046.32       UNSATURATED ZONE =         -15351.26
       SATURATED ZONE =         621876.04         SATURATED ZONE =           3685.66

 OVERALL BUDGET ERROR =           2127.06           BUDGET ERROR =             -0.32


  PERCENT DISCREPANCY =              0.09    PERCENT DISCREPANCY =             -0.00



1
 SUMMARY VOLUMETRIC BUDGET FOR GSFLOW 
 DATE: 12 30 1990              CUMULATIVE TIME STEP:      30
 MODFLOW STRESS PERIOD      4     CURRENT TIME STEP:      91     ITERATIONS:       5

 -----------------------------------------------------------------------------------

   CUMULATIVE VOLUMES               L**3   RATES FOR THIS TIME STEP           L**3/T
   ------------------                      ------------------------

                                     IN                                         IN
                                     --                                         --
        PRECIPITATION =        2276236.55          PRECIPITATION =                  
           STREAMFLOW =                               STREAMFLOW =                  
     GW BOUNDARY FLOW =              0.77       GW BOUNDARY FLOW =              0.14


                                    OUT                                        OUT
                                    ---                                        ---
   EVAPOTRANSPIRATION =        1310982.66     EVAPOTRANSPIRATION =                  
           STREAMFLOW =         911657.37             STREAMFLOW =          11639.53
     GW BOUNDARY FLOW =           3269.42       GW BOUNDARY FLOW =             35.60

   INFLOWS - OUTFLOWS =          50327.87     INFLOWS - OUTFLOWS =         -11674.99
             --------                                   --------

 TOTAL STORAGE CHANGE =          48211.70         STORAGE CHANGE =         -11672.45
       --------------                             --------------
         LAND SURFACE =         725228.17           LAND SURFACE =                  
            SOIL ZONE =        1064277.46              SOIL ZONE =            109.61
     UNSATURATED ZONE =       -2386354.32       UNSATURATED ZONE =         -14807.19
       SATURATED ZONE =         645060.16         SATURATED ZONE =           3025.12

 OVERALL BUDGET ERROR =           2116.17           BUDGET ERROR =             -2.54


  PERCENT DISCREPANCY =              0.09    PERCENT DISCREPANCY =             -0.02



1
 SUMMARY VOLUMETRIC BUDGET FOR GSFLOW 
 DATE: 01 06 1991              CUMULATIVE TIME STEP:       6
 MODFLOW STRESS PERIOD      5     CURRENT TIME STEP:      98     ITERATIONS:       5

 -----------------------------------------------------------------------------------

   CUMULATIVE VOLUMES               L**3   RATES FOR THIS TIME STEP           L**3/T
   ------------------                      ------------------------

                                     IN                                         IN
                                     --                                         --
        PRECIPITATION =        2276236.55          PRECIPITATION =                  
           STREAMFLOW =                               STREAMFLOW =                  
     GW BOUNDARY FLOW =              2.09       GW BOUNDARY FLOW =              0.22


                                    OUT                                        OUT
                                    ---                                        ---
   EVAPOTRANSPIRATION =        1334260.34     EVAPOTRANSPIRATION =           2584.60
           STREAMFLOW =         993556.01             STREAMFLOW =          11738.26
     GW BOUNDARY FLOW =           3519.30       GW BOUNDARY FLOW =             35.75

   INFLOWS - OUTFLOWS =         -55097.02     INFLOWS - OUTFLOWS =         -14358.38
             --------                                   --------

 TOTAL STORAGE CHANGE =         -57829.05         STORAGE CHANGE =         -14380.46
       --------------                             --------------
         LAND SURFACE =         620283.30           LAND SURFACE =          -6112.33
            SOIL ZONE =        1146069.34              SOIL ZONE =           3606.54
     UNSATURATED ZONE =       -2487704.46       UNSATURATED ZONE =         -14236.77
       SATURATED ZONE =         663522.50         SATURATED ZONE =           2362.09

 OVERALL BUDGET ERROR =           2732.03           BUDGET ERROR =             22.08


  PERCENT DISCREPANCY =              0.12    PERCENT DISCREPANCY =              0.15



1
 SUMMARY VOLUMETRIC BUDGET FOR GSFLOW 
 DATE: 01 13 1991              CUMULATIVE TIME STEP:      13
 MODFLOW STRESS PERIOD      5     CURRENT TIME STEP:     105     ITERATIONS:       6

 -----------------------------------------------------------------------------------

   CUMULATIVE VOLUMES               L**3   RATES FOR THIS TIME STEP           L**3/T
   ------------------                      ------------------------

                                     IN                                         IN
                                     --                                         --
        PRECIPITATION =        2596386.94          PRECIPITATION =          10327.43
           STREAMFLOW =                               STREAMFLOW =                  
     GW BOUNDARY FLOW =              4.02       GW BOUNDARY FLOW =              0.31


                                    OUT                                        OUT
                                    ---                                        ---
   EVAPOTRANSPIRATION =        1394855.61     EVAPOTRANSPIRATION =          17394.96
           STREAMFLOW =        1075879.76             STREAMFLOW =          11733.39
     GW BOUNDARY FLOW =           3769.53       GW BOUNDARY FLOW =             35.73

   INFLOWS - OUTFLOWS =         121886.06     INFLOWS - OUTFLOWS =         -18836.33
             --------                                   --------

 TOTAL STORAGE CHANGE =         117912.70         STORAGE CHANGE =         -19113.27
       --------------                             --------------
         LAND SURFACE =         586364.86           LAND SURFACE =        -135127.18
            SOIL ZONE =        1440127.26              SOIL ZONE =         128616.75
     UNSATURATED ZONE =       -2585005.40       UNSATURATED ZONE =         -13714.31
       SATURATED ZONE =         676425.65         SATURATED ZONE =           1111.46

 OVERALL BUDGET ERROR =           3973.36           BUDGET ERROR =            276.94


  PERCENT DISCREPANCY =              0.15    PERCENT DISCREPANCY =              0.95



1
 SUMMARY VOLUMETRIC BUDGET FOR GSFLOW 
 DATE: 01 20 1991              CUMULATIVE TIME STEP:      20
 MODFLOW STRESS PERIOD      5     CURRENT TIME STEP:     112     ITERATIONS:       5

 -----------------------------------------------------------------------------------

   CUMULATIVE VOLUMES               L**3   RATES FOR THIS TIME STEP           L**3/T
   ------------------                      ------------------------

                                     IN                                         IN
                                     --                                         --
        PRECIPITATION =        2596386.94          PRECIPITATION =                  
           STREAMFLOW =                               STREAMFLOW =                  
     GW BOUNDARY FLOW =              6.55       GW BOUNDARY FLOW =              0.40


                                    OUT                                        OUT
                                    ---                                        ---
   EVAPOTRANSPIRATION =        1465526.01     EVAPOTRANSPIRATION =           1892.63
           STREAMFLOW =        1159043.57             STREAMFLOW =          11899.09
     GW BOUNDARY FLOW =           4019.75       GW BOUNDARY FLOW =             35.74

   INFLOWS - OUTFLOWS =         -32195.84     INFLOWS - OUTFLOWS =         -13827.07
             --------                                   --------

 TOTAL STORAGE CHANGE =         -36277.09         STORAGE CHANGE =         -13819.22
       --------------                             --------------
         LAND SURFACE =         422210.59           LAND SURFACE =           -295.67
            SOIL ZONE =        1534175.70              SOIL ZONE =          -1531.45
     UNSATURATED ZONE =       -2678414.18       UNSATURATED ZONE =         -13122.43
       SATURATED ZONE =         685750.41         SATURATED ZONE =           1130.32

 OVERALL BUDGET ERROR =           4081.25           BUDGET ERROR =             -7.86


  PERCENT DISCREPANCY =              0.16    PERCENT DISCREPANCY =             -0.06



1
 SUMMARY VOLUMETRIC BUDGET FOR GSFLOW 
 DATE: 01 27 1991              CUMULATIVE TIME STEP:      27
 MODFLOW STRESS PERIOD      5     CURRENT TIME STEP:     119     ITERATIONS:       5

 -----------------------------------------------------------------------------------

   CUMULATIVE VOLUMES               L**3   RATES FOR THIS TIME STEP           L**3/T
   ------------------                      ------------------------

                                     IN                                         IN
                                     --                                         --
        PRECIPITATION =        2596386.94          PRECIPITATION =                  
           STREAMFLOW =                               STREAMFLOW =                  
     GW BOUNDARY FLOW =              9.66       GW BOUNDARY FLOW =              0.48


                                    OUT                                        OUT
                                    ---                                        ---
   EVAPOTRANSPIRATION =        1487582.24     EVAPOTRANSPIRATION =           1239.77
           STREAMFLOW =        1242287.11             STREAMFLOW =          11918.51
     GW BOUNDARY FLOW =           4269.92       GW BOUNDARY FLOW =             35.74

   INFLOWS - OUTFLOWS =        -137742.67     INFLOWS - OUTFLOWS =         -13193.54
             --------                                   --------

 TOTAL STORAGE CHANGE =        -141779.09         STORAGE CHANGE =         -13184.54
       --------------                             --------------
         LAND SURFACE =         394226.40           LAND SURFACE =           -109.80
            SOIL ZONE =        1541087.33              SOIL ZONE =          -1018.22
     UNSATURATED ZONE =       -2768307.66       UNSATURATED ZONE =         -12621.67
       SATURATED ZONE =         691214.40         SATURATED ZONE =            565.15

 OVERALL BUDGET ERROR =           4036.42           BUDGET ERROR =             -9.01


  PERCENT DISCREPANCY =              0.15    PERCENT DISCREPANCY =             -0.07



1
 SUMMARY VOLUMETRIC BUDGET FOR GSFLOW 
 DATE: 02 03 1991              CUMULATIVE TIME STEP:       3
 MODFLOW STRESS PERIOD      6     CURRENT TIME STEP:     126     ITERATIONS:       6

 -----------------------------------------------------------------------------------

   CUMULATIVE VOLUMES               L**3   RATES FOR THIS TIME STEP           L**3/T
   ------------------                      ------------------------

                                     IN                                         IN
                                     --                                         --
        PRECIPITATION =        3228422.31          PRECIPITATION =          30459.53
           STREAMFLOW =                               STREAMFLOW =                  
     GW BOUNDARY FLOW =             13.31       GW BOUNDARY FLOW =              0.55


                                    OUT                                        OUT
                                    ---                                        ---
   EVAPOTRANSPIRATION =        1589942.73     EVAPOTRANSPIRATION =          20507.84
           STREAMFLOW =        1327074.09             STREAMFLOW =          12248.71
     GW BOUNDARY FLOW =           4520.01       GW BOUNDARY FLOW =             35.74

   INFLOWS - OUTFLOWS =         306898.79     INFLOWS - OUTFLOWS =          -2332.20
             --------                                   --------

 TOTAL STORAGE CHANGE =         301074.97         STORAGE CHANGE =          -2419.67
       --------------                             --------------
         LAND SURFACE =         184727.70           LAND SURFACE =         -28670.24
            SOIL ZONE =        2279178.55              SOIL ZONE =          38482.17
     UNSATURATED ZONE =       -2854991.46       UNSATURATED ZONE =         -12216.67
       SATURATED ZONE =         692159.66         SATURATED ZONE =            -14.95

 OVERALL BUDGET ERROR =           5823.82           BUDGET ERROR =             87.47


  PERCENT DISCREPANCY =              0.18    PERCENT DISCREPANCY =              0.27



1
 SUMMARY VOLUMETRIC BUDGET FOR GSFLOW 
 DATE: 02 10 1991              CUMULATIVE TIME STEP:      10
 MODFLOW STRESS PERIOD      6     CURRENT TIME STEP:     133     ITERATIONS:       5

 -----------------------------------------------------------------------------------

   CUMULATIVE VOLUMES               L**3   RATES FOR THIS TIME STEP           L**3/T
   ------------------                      ------------------------

                                     IN                                         IN
                                     --                                         --
        PRECIPITATION =        3510173.01          PRECIPITATION =                  
           STREAMFLOW =                               STREAMFLOW =                  
     GW BOUNDARY FLOW =             17.49       GW BOUNDARY FLOW =              0.63


                                    OUT                                        OUT
                                    ---                                        ---
   EVAPOTRANSPIRATION =        1756824.93     EVAPOTRANSPIRATION =          25852.40
           STREAMFLOW =        1413170.79             STREAMFLOW =          12176.62
     GW BOUNDARY FLOW =           4770.10       GW BOUNDARY FLOW =             35.72

   INFLOWS - OUTFLOWS =         335424.68     INFLOWS - OUTFLOWS =         -38064.11
             --------                                   --------

 TOTAL STORAGE CHANGE =         328934.35         STORAGE CHANGE =         -38052.15
       --------------                             --------------
         LAND SURFACE =          90050.80           LAND SURFACE =         -12330.62
            SOIL ZONE =        2486929.35              SOIL ZONE =         -13482.11
     UNSATURATED ZONE =       -2938208.74       UNSATURATED ZONE =         -11709.27
       SATURATED ZONE =         690162.35         SATURATED ZONE =           -530.17

 OVERALL BUDGET ERROR =           6490.33           BUDGET ERROR =            -11.96


  PERCENT DISCREPANCY =              0.19    PERCENT DISCREPANCY =             -0.03



1
 SUMMARY VOLUMETRIC BUDGET FOR GSFLOW 
 DATE: 02 17 1991              CUMULATIVE TIME STEP:      17
 MODFLOW STRESS PERIOD      6     CURRENT TIME STEP:     140     ITERATIONS:       5

 -----------------------------------------------------------------------------------

   CUMULATIVE VOLUMES               L**3   RATES FOR THIS TIME STEP           L**3/T
   ------------------                      ------------------------

                                     IN                                         IN
                                     --                                         --
        PRECIPITATION =        3510173.01          PRECIPITATION =                  
           STREAMFLOW =                               STREAMFLOW =                  
     GW BOUNDARY FLOW =             22.16       GW BOUNDARY FLOW =              0.70


                                    OUT                                        OUT
                                    ---                                        ---
   EVAPOTRANSPIRATION =        2000316.17     EVAPOTRANSPIRATION =          23256.88
           STREAMFLOW =        1498002.81             STREAMFLOW =          12114.92
     GW BOUNDARY FLOW =           5020.03       GW BOUNDARY FLOW =             35.68

   INFLOWS - OUTFLOWS =           6856.16     INFLOWS - OUTFLOWS =         -35406.78
             --------                                   --------

 TOTAL STORAGE CHANGE =            455.93         STORAGE CHANGE =         -35393.07
       --------------                             --------------
         LAND SURFACE =          18163.74           LAND SURFACE =          -1654.25
            SOIL ZONE =        2315826.61              SOIL ZONE =         -21623.25
     UNSATURATED ZONE =       -3017837.57       UNSATURATED ZONE =         -11066.67
       SATURATED ZONE =         684302.48         SATURATED ZONE =          -1048.91

 OVERALL BUDGET ERROR =           6400.23           BUDGET ERROR =            -13.71


  PERCENT DISCREPANCY =              0.18    PERCENT DISCREPANCY =             -0.04



1
 SUMMARY VOLUMETRIC BUDGET FOR GSFLOW 
 DATE: 02 24 1991              CUMULATIVE TIME STEP:      24
 MODFLOW STRESS PERIOD      6     CURRENT TIME STEP:     147     ITERATIONS:       5

 -----------------------------------------------------------------------------------

   CUMULATIVE VOLUMES               L**3   RATES FOR THIS TIME STEP           L**3/T
   ------------------                      ------------------------

                                     IN                                         IN
                                     --                                         --
        PRECIPITATION =        3510173.01          PRECIPITATION =                  
           STREAMFLOW =                               STREAMFLOW =                  
     GW BOUNDARY FLOW =             27.31       GW BOUNDARY FLOW =              0.76


                                    OUT                                        OUT
                                    ---                                        ---
   EVAPOTRANSPIRATION =        2216478.15     EVAPOTRANSPIRATION =          21963.24
           STREAMFLOW =        1582108.09             STREAMFLOW =          11974.08
     GW BOUNDARY FLOW =           5268.96       GW BOUNDARY FLOW =             35.48

   INFLOWS - OUTFLOWS =        -293654.88     INFLOWS - OUTFLOWS =         -33972.04
             --------                                   --------

 TOTAL STORAGE CHANGE =        -299952.85         STORAGE CHANGE =         -33956.62
       --------------                             --------------
         LAND SURFACE =           6686.42           LAND SURFACE =           -239.07
            SOIL ZONE =        2112314.16              SOIL ZONE =         -21446.08
     UNSATURATED ZONE =       -3093644.05       UNSATURATED ZONE =         -10664.01
       SATURATED ZONE =         674689.85         SATURATED ZONE =          -1607.48

 OVERALL BUDGET ERROR =           6297.97           BUDGET ERROR =            -15.42


  PERCENT DISCREPANCY =              0.17    PERCENT DISCREPANCY =             -0.05



1
 SUMMARY VOLUMETRIC BUDGET FOR GSFLOW 
 DATE: 03 03 1991              CUMULATIVE TIME STEP:       3
 MODFLOW STRESS PERIOD      7     CURRENT TIME STEP:     154     ITERATIONS:       5

 -----------------------------------------------------------------------------------

   CUMULATIVE VOLUMES               L**3   RATES FOR THIS TIME STEP           L**3/T
   ------------------                      ------------------------

                                     IN                                         IN
                                     --                                         --
        PRECIPITATION =        6220189.63          PRECIPITATION =        1243187.24
           STREAMFLOW =                               STREAMFLOW =                  
     GW BOUNDARY FLOW =             32.91       GW BOUNDARY FLOW =              0.83


                                    OUT                                        OUT
                                    ---                                        ---
   EVAPOTRANSPIRATION =        2368676.07     EVAPOTRANSPIRATION =           8010.62
           STREAMFLOW =        1665664.62             STREAMFLOW =          12235.93
     GW BOUNDARY FLOW =           5516.65       GW BOUNDARY FLOW =             35.33

   INFLOWS - OUTFLOWS =        2180365.21     INFLOWS - OUTFLOWS =        1222906.18
             --------                                   --------

 TOTAL STORAGE CHANGE =        2172202.57         STORAGE CHANGE =        1220961.36
       --------------                             --------------
         LAND SURFACE =        2505904.36           LAND SURFACE =        1046748.89
            SOIL ZONE =        2173109.53              SOIL ZONE =         186890.95
     UNSATURATED ZONE =       -3166521.26       UNSATURATED ZONE =         -10283.70
       SATURATED ZONE =         659709.08         SATURATED ZONE =          -2394.80

 OVERALL BUDGET ERROR =           8162.64           BUDGET ERROR =           1944.82


  PERCENT DISCREPANCY =              0.13    PERCENT DISCREPANCY =              0.16



1
 SUMMARY VOLUMETRIC BUDGET FOR GSFLOW 
 DATE: 03 10 1991              CUMULATIVE TIME STEP:      10
 MODFLOW STRESS PERIOD      7     CURRENT TIME STEP:     161     ITERATIONS:       5

 -----------------------------------------------------------------------------------

   CUMULATIVE VOLUMES               L**3   RATES FOR THIS TIME STEP           L**3/T
   ------------------                      ------------------------

                                     IN                                         IN
                                     --                                         --
        PRECIPITATION =        8746030.42          PRECIPITATION =          32888.55
           STREAMFLOW =                               STREAMFLOW =                  
     GW BOUNDARY FLOW =             38.95       GW BOUNDARY FLOW =              0.89


                                    OUT                                        OUT
                                    ---                                        ---
   EVAPOTRANSPIRATION =        2427808.60     EVAPOTRANSPIRATION =           8408.70
           STREAMFLOW =        1805927.04             STREAMFLOW =          18794.40
     GW BOUNDARY FLOW =           5764.83       GW BOUNDARY FLOW =             35.38

   INFLOWS - OUTFLOWS =        4506568.90     INFLOWS - OUTFLOWS =           5650.96
             --------                                   --------

 TOTAL STORAGE CHANGE =        4488582.80         STORAGE CHANGE =           5437.36
       --------------                             --------------
         LAND SURFACE =        3082070.49           LAND SURFACE =            535.10
            SOIL ZONE =        3963498.44              SOIL ZONE =          11444.69
     UNSATURATED ZONE =       -3208872.29       UNSATURATED ZONE =          -5183.11
       SATURATED ZONE =         651885.10         SATURATED ZONE =          -1359.35

 OVERALL BUDGET ERROR =          17986.10           BUDGET ERROR =            213.60


  PERCENT DISCREPANCY =              0.21    PERCENT DISCREPANCY =              0.65



1
 SUMMARY VOLUMETRIC BUDGET FOR GSFLOW 
 DATE: 03 17 1991              CUMULATIVE TIME STEP:      17
 MODFLOW STRESS PERIOD      7     CURRENT TIME STEP:     168     ITERATIONS:       5

 -----------------------------------------------------------------------------------

   CUMULATIVE VOLUMES               L**3   RATES FOR THIS TIME STEP           L**3/T
   ------------------                      ------------------------

                                     IN                                         IN
                                     --                                         --
        PRECIPITATION =        9897129.71          PRECIPITATION =         157865.04
           STREAMFLOW =                               STREAMFLOW =                  
     GW BOUNDARY FLOW =             45.40       GW BOUNDARY FLOW =              0.95


                                    OUT                                        OUT
                                    ---                                        ---
   EVAPOTRANSPIRATION =        2453485.52     EVAPOTRANSPIRATION =           7593.21
           STREAMFLOW =        1928839.57             STREAMFLOW =          17030.29
     GW BOUNDARY FLOW =           6011.68       GW BOUNDARY FLOW =             35.19

   INFLOWS - OUTFLOWS =        5508838.34     INFLOWS - OUTFLOWS =         133207.30
             --------                                   --------

 TOTAL STORAGE CHANGE =        5490982.66         STORAGE CHANGE =         133226.48
       --------------                             --------------
         LAND SURFACE =        4232943.09           LAND SURFACE =         157846.09
            SOIL ZONE =        3866780.10              SOIL ZONE =         -16790.45
     UNSATURATED ZONE =       -3246979.39       UNSATURATED ZONE =          -5581.79
       SATURATED ZONE =         638237.59         SATURATED ZONE =          -2247.39

 OVERALL BUDGET ERROR =          17855.69           BUDGET ERROR =            -19.18


  PERCENT DISCREPANCY =              0.18    PERCENT DISCREPANCY =             -0.01



1
 SUMMARY VOLUMETRIC BUDGET FOR GSFLOW 
 DATE: 03 24 1991              CUMULATIVE TIME STEP:      24
 MODFLOW STRESS PERIOD      7     CURRENT TIME STEP:     175     ITERATIONS:       5

 -----------------------------------------------------------------------------------

   CUMULATIVE VOLUMES               L**3   RATES FOR THIS TIME STEP           L**3/T
   ------------------                      ------------------------

                                     IN                                         IN
                                     --                                         --
        PRECIPITATION =        1.1673D+07          PRECIPITATION =        1230031.83
           STREAMFLOW =                               STREAMFLOW =                  
     GW BOUNDARY FLOW =             52.26       GW BOUNDARY FLOW =              1.00


                                    OUT                                        OUT
                                    ---                                        ---
   EVAPOTRANSPIRATION =        2489067.09     EVAPOTRANSPIRATION =           4147.04
           STREAMFLOW =        2044335.05             STREAMFLOW =          16201.78
     GW BOUNDARY FLOW =           6257.34       GW BOUNDARY FLOW =             35.03

   INFLOWS - OUTFLOWS =        7133504.28     INFLOWS - OUTFLOWS =        1209648.99
             --------                                   --------

 TOTAL STORAGE CHANGE =        7115693.47         STORAGE CHANGE =        1209669.31
       --------------                             --------------
         LAND SURFACE =        6001644.06           LAND SURFACE =        1230031.83
            SOIL ZONE =        3781463.40              SOIL ZONE =         -11605.04
     UNSATURATED ZONE =       -3287869.68       UNSATURATED ZONE =          -6017.68
       SATURATED ZONE =         620454.22         SATURATED ZONE =          -2739.82

 OVERALL BUDGET ERROR =          17810.82           BUDGET ERROR =            -20.32


  PERCENT DISCREPANCY =              0.15    PERCENT DISCREPANCY =             -0.00



1
 SUMMARY VOLUMETRIC BUDGET FOR GSFLOW 
 DATE: 03 31 1991              CUMULATIVE TIME STEP:      31
 MODFLOW STRESS PERIOD      7     CURRENT TIME STEP:     182     ITERATIONS:       6

 -----------------------------------------------------------------------------------

   CUMULATIVE VOLUMES               L**3   RATES FOR THIS TIME STEP           L**3/T
   ------------------                      ------------------------

                                     IN                                         IN
                                     --                                         --
        PRECIPITATION =        1.2495D+07          PRECIPITATION =                  
           STREAMFLOW =                               STREAMFLOW =                  
     GW BOUNDARY FLOW =             59.52       GW BOUNDARY FLOW =              1.06


                                    OUT                                        OUT
                                    ---                                        ---
   EVAPOTRANSPIRATION =        2597360.87     EVAPOTRANSPIRATION =          44705.19
           STREAMFLOW =        2159184.11             STREAMFLOW =          18350.00
     GW BOUNDARY FLOW =           6502.01       GW BOUNDARY FLOW =             34.94

   INFLOWS - OUTFLOWS =        7732337.82     INFLOWS - OUTFLOWS =         -63089.06
             --------                                   --------

 TOTAL STORAGE CHANGE =        7713431.49         STORAGE CHANGE =         -63913.15
       --------------                             --------------
         LAND SURFACE =        6627859.43           LAND SURFACE =        -109529.99
            SOIL ZONE =        3814788.93              SOIL ZONE =          53665.89
     UNSATURATED ZONE =       -3329145.60       UNSATURATED ZONE =          -5153.27
       SATURATED ZONE =         599927.07         SATURATED ZONE =          -2895.80

 OVERALL BUDGET ERROR =          18906.33           BUDGET ERROR =            824.09


  PERCENT DISCREPANCY =              0.15    PERCENT DISCREPANCY =              1.30



1
 SUMMARY VOLUMETRIC BUDGET FOR GSFLOW 
 DATE: 04 07 1991              CUMULATIVE TIME STEP:       7
 MODFLOW STRESS PERIOD      8     CURRENT TIME STEP:     189     ITERATIONS:       7

 -----------------------------------------------------------------------------------

   CUMULATIVE VOLUMES               L**3   RATES FOR THIS TIME STEP           L**3/T
   ------------------                      ------------------------

                                     IN                                         IN
                                     --                                         --
        PRECIPITATION =        1.3018D+07          PRECIPITATION =                  
           STREAMFLOW =                               STREAMFLOW =                  
     GW BOUNDARY FLOW =             67.14       GW BOUNDARY FLOW =              1.11


                                    OUT                                        OUT
                                    ---                                        ---
   EVAPOTRANSPIRATION =        2884680.18     EVAPOTRANSPIRATION =          13551.18
           STREAMFLOW =        2417541.79             STREAMFLOW =          52186.94
     GW BOUNDARY FLOW =           6748.48       GW BOUNDARY FLOW =             35.44

   INFLOWS - OUTFLOWS =        7708833.42     INFLOWS - OUTFLOWS =         -65772.45
             --------                                   --------

 TOTAL STORAGE CHANGE =        7682023.83         STORAGE CHANGE =         -66103.30
       --------------                             --------------
         LAND SURFACE =        5127084.68           LAND SURFACE =         -59307.30
            SOIL ZONE =        5299755.10              SOIL ZONE =         -10592.36
     UNSATURATED ZONE =       -3326900.08       UNSATURATED ZONE =           6164.78
       SATURATED ZONE =         582082.19         SATURATED ZONE =          -2368.45

 OVERALL BUDGET ERROR =          26809.59           BUDGET ERROR =            330.84


  PERCENT DISCREPANCY =              0.21    PERCENT DISCREPANCY =              0.50



1
 SUMMARY VOLUMETRIC BUDGET FOR GSFLOW 
 DATE: 04 14 1991              CUMULATIVE TIME STEP:      14
 MODFLOW STRESS PERIOD      8     CURRENT TIME STEP:     196     ITERATIONS:       6

 -----------------------------------------------------------------------------------

   CUMULATIVE VOLUMES               L**3   RATES FOR THIS TIME STEP           L**3/T
   ------------------                      ------------------------

                                     IN                                         IN
                                     --                                         --
        PRECIPITATION =        1.3018D+07          PRECIPITATION =                  
           STREAMFLOW =                               STREAMFLOW =                  
     GW BOUNDARY FLOW =             75.09       GW BOUNDARY FLOW =              1.16


                                    OUT                                        OUT
                                    ---                                        ---
   EVAPOTRANSPIRATION =        3054517.45     EVAPOTRANSPIRATION =          38934.02
           STREAMFLOW =        2821203.37             STREAMFLOW =          61993.88
     GW BOUNDARY FLOW =           6996.58       GW BOUNDARY FLOW =             35.45

   INFLOWS - OUTFLOWS =        7135094.43     INFLOWS - OUTFLOWS =        -100962.20
             --------                                   --------

 TOTAL STORAGE CHANGE =        7105367.06         STORAGE CHANGE =        -101733.49
       --------------                             --------------
         LAND SURFACE =        4519797.60           LAND SURFACE =        -171937.20
            SOIL ZONE =        5302230.24              SOIL ZONE =          66486.18
     UNSATURATED ZONE =       -3282955.28       UNSATURATED ZONE =           6077.66
       SATURATED ZONE =         566292.25         SATURATED ZONE =          -2360.19

 OVERALL BUDGET ERROR =          29727.37           BUDGET ERROR =            771.30


  PERCENT DISCREPANCY =              0.23    PERCENT DISCREPANCY =              0.76



1
 SUMMARY VOLUMETRIC BUDGET FOR GSFLOW 
 DATE: 04 21 1991              CUMULATIVE TIME STEP:      21
 MODFLOW STRESS PERIOD      8     CURRENT TIME STEP:     203     ITERATIONS:       7

 -----------------------------------------------------------------------------------

   CUMULATIVE VOLUMES               L**3   RATES FOR THIS TIME STEP           L**3/T
   ------------------                      ------------------------

                                     IN                                         IN
                                     --                                         --
        PRECIPITATION =        1.3034D+07          PRECIPITATION =                  
           STREAMFLOW =                               STREAMFLOW =                  
     GW BOUNDARY FLOW =             83.36       GW BOUNDARY FLOW =              1.20


                                    OUT                                        OUT
                                    ---                                        ---
   EVAPOTRANSPIRATION =        3286196.56     EVAPOTRANSPIRATION =          43440.58
           STREAMFLOW =        3306154.20             STREAMFLOW =          81381.45
     GW BOUNDARY FLOW =           7245.00       GW BOUNDARY FLOW =             35.61

   INFLOWS - OUTFLOWS =        6434549.70     INFLOWS - OUTFLOWS =        -124856.43
             --------                                   --------

 TOTAL STORAGE CHANGE =        6400708.58         STORAGE CHANGE =        -125498.80
       --------------                             --------------
         LAND SURFACE =        3417717.42           LAND SURFACE =        -214591.82
            SOIL ZONE =        5666203.02              SOIL ZONE =          82353.00
     UNSATURATED ZONE =       -3233777.86       UNSATURATED ZONE =           8839.80
       SATURATED ZONE =         550563.40         SATURATED ZONE =          -2099.83

 OVERALL BUDGET ERROR =          33841.12           BUDGET ERROR =            642.36


  PERCENT DISCREPANCY =              0.26    PERCENT DISCREPANCY =              0.51



1
 SUMMARY VOLUMETRIC BUDGET FOR GSFLOW 
 DATE: 04 28 1991              CUMULATIVE TIME STEP:      28
 MODFLOW STRESS PERIOD      8     CURRENT TIME STEP:     210     ITERATIONS:       6

 -----------------------------------------------------------------------------------

   CUMULATIVE VOLUMES               L**3   RATES FOR THIS TIME STEP           L**3/T
   ------------------                      ------------------------

                                     IN                                         IN
                                     --                                         --
        PRECIPITATION =        1.3303D+07          PRECIPITATION =                  
           STREAMFLOW =                               STREAMFLOW =                  
     GW BOUNDARY FLOW =             91.90       GW BOUNDARY FLOW =              1.24


                                    OUT                                        OUT
                                    ---                                        ---
   EVAPOTRANSPIRATION =        3533054.22     EVAPOTRANSPIRATION =          55256.92
           STREAMFLOW =        3882288.70             STREAMFLOW =          78569.80
     GW BOUNDARY FLOW =           7493.90       GW BOUNDARY FLOW =             35.46

   INFLOWS - OUTFLOWS =        5880685.58     INFLOWS - OUTFLOWS =        -133860.94
             --------                                   --------

 TOTAL STORAGE CHANGE =        5844287.80         STORAGE CHANGE =        -134067.10
       --------------                             --------------
         LAND SURFACE =        2828492.52           LAND SURFACE =        -115203.82
            SOIL ZONE =        5649173.92              SOIL ZONE =         -25193.76
     UNSATURATED ZONE =       -3170046.06       UNSATURATED ZONE =           8351.47
       SATURATED ZONE =         536664.44         SATURATED ZONE =          -2021.05

 OVERALL BUDGET ERROR =          36397.78           BUDGET ERROR =            206.16


  PERCENT DISCREPANCY =              0.27    PERCENT DISCREPANCY =              0.15



1
 SUMMARY VOLUMETRIC BUDGET FOR GSFLOW 
 DATE: 05 05 1991              CUMULATIVE TIME STEP:       5
 MODFLOW STRESS PERIOD      9     CURRENT TIME STEP:     217     ITERATIONS:      10

 -----------------------------------------------------------------------------------

   CUMULATIVE VOLUMES               L**3   RATES FOR THIS TIME STEP           L**3/T
   ------------------                      ------------------------

                                     IN                                         IN
                                     --                                         --
        PRECIPITATION =        1.3510D+07          PRECIPITATION =                  
           STREAMFLOW =                               STREAMFLOW =                  
     GW BOUNDARY FLOW =            100.71       GW BOUNDARY FLOW =              1.27


                                    OUT                                        OUT
                                    ---                                        ---
   EVAPOTRANSPIRATION =        3881984.01     EVAPOTRANSPIRATION =          84779.38
           STREAMFLOW =        4396576.27             STREAMFLOW =          74915.59
     GW BOUNDARY FLOW =           7741.20       GW BOUNDARY FLOW =             35.28

   INFLOWS - OUTFLOWS =        5223507.36     INFLOWS - OUTFLOWS =        -159728.97
             --------                                   --------

 TOTAL STORAGE CHANGE =        5185494.37         STORAGE CHANGE =        -159944.82
       --------------                             --------------
         LAND SURFACE =        2164321.68           LAND SURFACE =        -169194.91
            SOIL ZONE =        5612320.99              SOIL ZONE =           2276.09
     UNSATURATED ZONE =       -3115808.48       UNSATURATED ZONE =           6825.44
       SATURATED ZONE =         524656.78         SATURATED ZONE =            148.50

 OVERALL BUDGET ERROR =          38013.00           BUDGET ERROR =            215.84


  PERCENT DISCREPANCY =              0.28    PERCENT DISCREPANCY =              0.14



1
 SUMMARY VOLUMETRIC BUDGET FOR GSFLOW 
 DATE: 05 12 1991              CUMULATIVE TIME STEP:      12
 MODFLOW STRESS PERIOD      9     CURRENT TIME STEP:     224     ITERATIONS:       6

 -----------------------------------------------------------------------------------

   CUMULATIVE VOLUMES               L**3   RATES FOR THIS TIME STEP           L**3/T
   ------------------                      ------------------------

                                     IN                                         IN
                                     --                                         --
        PRECIPITATION =        1.4029D+07          PRECIPITATION =                  
           STREAMFLOW =                               STREAMFLOW =                  
     GW BOUNDARY FLOW =            109.79       GW BOUNDARY FLOW =              1.31


                                    OUT                                        OUT
                                    ---                                        ---
   EVAPOTRANSPIRATION =        4251769.54     EVAPOTRANSPIRATION =          62579.68
           STREAMFLOW =        4904613.47             STREAMFLOW =          75597.73
     GW BOUNDARY FLOW =           7987.22       GW BOUNDARY FLOW =             35.11

   INFLOWS - OUTFLOWS =        4864961.72     INFLOWS - OUTFLOWS =        -138211.20
             --------                                   --------

 TOTAL STORAGE CHANGE =        4824972.84         STORAGE CHANGE =        -138373.22
       --------------                             --------------
         LAND SURFACE =        1719829.12           LAND SURFACE =        -195667.44
            SOIL ZONE =        5652880.92              SOIL ZONE =          51434.16
     UNSATURATED ZONE =       -3059085.61       UNSATURATED ZONE =           7817.36
       SATURATED ZONE =         511344.55         SATURATED ZONE =          -1957.36

 OVERALL BUDGET ERROR =          39988.88           BUDGET ERROR =            162.02


  PERCENT DISCREPANCY =              0.29    PERCENT DISCREPANCY =              0.12



1
 SUMMARY VOLUMETRIC BUDGET FOR GSFLOW 
 DATE: 05 19 1991              CUMULATIVE TIME STEP:      19
 MODFLOW STRESS PERIOD      9     CURRENT TIME STEP:     231     ITERATIONS:       9

 -----------------------------------------------------------------------------------

   CUMULATIVE VOLUMES               L**3   RATES FOR THIS TIME STEP           L**3/T
   ------------------                      ------------------------

                                     IN                                         IN
                                     --                                         --
        PRECIPITATION =        1.4365D+07          PRECIPITATION =                  
           STREAMFLOW =                               STREAMFLOW =                  
     GW BOUNDARY FLOW =            119.13       GW BOUNDARY FLOW =              1.35


                                    OUT                                        OUT
                                    ---                                        ---
   EVAPOTRANSPIRATION =        4651700.40     EVAPOTRANSPIRATION =          17977.42
           STREAMFLOW =        5408825.93             STREAMFLOW =          64687.13
     GW BOUNDARY FLOW =           8231.98       GW BOUNDARY FLOW =             34.79

   INFLOWS - OUTFLOWS =        4296739.14     INFLOWS - OUTFLOWS =         -82697.99
             --------                                   --------

 TOTAL STORAGE CHANGE =        4255809.72         STORAGE CHANGE =         -82697.62
       --------------                             --------------
         LAND SURFACE =        1168636.63           LAND SURFACE =         -21196.61
            SOIL ZONE =        5592019.65              SOIL ZONE =         -66328.25
     UNSATURATED ZONE =       -3004582.59       UNSATURATED ZONE =           6716.25
       SATURATED ZONE =         499731.67         SATURATED ZONE =          -1889.08

 OVERALL BUDGET ERROR =          40929.41           BUDGET ERROR =             -0.37


  PERCENT DISCREPANCY =              0.29    PERCENT DISCREPANCY =             -0.00



1
 SUMMARY VOLUMETRIC BUDGET FOR GSFLOW 
 DATE: 05 26 1991              CUMULATIVE TIME STEP:      26
 MODFLOW STRESS PERIOD      9     CURRENT TIME STEP:     238     ITERATIONS:       8

 -----------------------------------------------------------------------------------

   CUMULATIVE VOLUMES               L**3   RATES FOR THIS TIME STEP           L**3/T
   ------------------                      ------------------------

                                     IN                                         IN
                                     --                                         --
        PRECIPITATION =        1.4426D+07          PRECIPITATION =                  
           STREAMFLOW =                               STREAMFLOW =                  
     GW BOUNDARY FLOW =            128.75       GW BOUNDARY FLOW =              1.39


                                    OUT                                        OUT
                                    ---                                        ---
   EVAPOTRANSPIRATION =        5298749.88     EVAPOTRANSPIRATION =          71055.65
           STREAMFLOW =        5821782.35             STREAMFLOW =          47664.17
     GW BOUNDARY FLOW =           8474.28       GW BOUNDARY FLOW =             34.37

   INFLOWS - OUTFLOWS =        3297619.86     INFLOWS - OUTFLOWS =        -118752.80
             --------                                   --------

 TOTAL STORAGE CHANGE =        3256535.28         STORAGE CHANGE =        -118751.30
       --------------                             --------------
         LAND SURFACE =         620424.11           LAND SURFACE =         -40812.89
            SOIL ZONE =        5115988.93              SOIL ZONE =         -79196.96
     UNSATURATED ZONE =       -2965097.13       UNSATURATED ZONE =           3561.85
       SATURATED ZONE =         485214.49         SATURATED ZONE =          -2303.37

 OVERALL BUDGET ERROR =          41084.58           BUDGET ERROR =             -1.50


  PERCENT DISCREPANCY =              0.29    PERCENT DISCREPANCY =             -0.00



1
 SUMMARY VOLUMETRIC BUDGET FOR GSFLOW 
 DATE: 06 02 1991              CUMULATIVE TIME STEP:       2
 MODFLOW STRESS PERIOD     10     CURRENT TIME STEP:     245     ITERATIONS:       8

 -----------------------------------------------------------------------------------

   CUMULATIVE VOLUMES               L**3   RATES FOR THIS TIME STEP           L**3/T
   ------------------                      ------------------------

                                     IN                                         IN
                                     --                                         --
        PRECIPITATION =        1.4671D+07          PRECIPITATION =                  
           STREAMFLOW =                               STREAMFLOW =                  
     GW BOUNDARY FLOW =            138.65       GW BOUNDARY FLOW =              1.43


                                    OUT                                        OUT
                                    ---                                        ---
   EVAPOTRANSPIRATION =        5843438.59     EVAPOTRANSPIRATION =         119334.26
           STREAMFLOW =        6126757.98             STREAMFLOW =          40345.42
     GW BOUNDARY FLOW =           8713.77       GW BOUNDARY FLOW =             34.09

   INFLOWS - OUTFLOWS =        2692203.11     INFLOWS - OUTFLOWS =        -159712.34
             --------                                   --------

 TOTAL STORAGE CHANGE =        2650601.63         STORAGE CHANGE =        -159710.36
       --------------                             --------------
         LAND SURFACE =         358942.21           LAND SURFACE =         -46420.51
            SOIL ZONE =        4773788.79              SOIL ZONE =        -112201.05
     UNSATURATED ZONE =       -2950591.77       UNSATURATED ZONE =           1425.75
       SATURATED ZONE =         468456.97         SATURATED ZONE =          -2514.63

 OVERALL BUDGET ERROR =          41601.48           BUDGET ERROR =             -1.98


  PERCENT DISCREPANCY =              0.28    PERCENT DISCREPANCY =             -0.00



1
 SUMMARY VOLUMETRIC BUDGET FOR GSFLOW 
 DATE: 06 09 1991              CUMULATIVE TIME STEP:       9
 MODFLOW STRESS PERIOD     10     CURRENT TIME STEP:     252     ITERATIONS:       7

 -----------------------------------------------------------------------------------

   CUMULATIVE VOLUMES               L**3   RATES FOR THIS TIME STEP           L**3/T
   ------------------                      ------------------------

                                     IN                                         IN
                                     --                                         --
        PRECIPITATION =        1.4671D+07          PRECIPITATION =                  
           STREAMFLOW =                               STREAMFLOW =                  
     GW BOUNDARY FLOW =            148.83       GW BOUNDARY FLOW =              1.47


                                    OUT                                        OUT
                                    ---                                        ---
   EVAPOTRANSPIRATION =        6559438.18     EVAPOTRANSPIRATION =         166447.12
           STREAMFLOW =        6354712.35             STREAMFLOW =          27703.00
     GW BOUNDARY FLOW =           8950.85       GW BOUNDARY FLOW =             33.71

   INFLOWS - OUTFLOWS =        1748022.26     INFLOWS - OUTFLOWS =        -194182.36
             --------                                   --------

 TOTAL STORAGE CHANGE =        1706455.10         STORAGE CHANGE =        -194176.79
       --------------                             --------------
         LAND SURFACE =         151647.51           LAND SURFACE =         -33724.69
            SOIL ZONE =        4061813.56              SOIL ZONE =        -155221.78
     UNSATURATED ZONE =       -2955022.96       UNSATURATED ZONE =          -1979.64
       SATURATED ZONE =         448010.99         SATURATED ZONE =          -3250.77

 OVERALL BUDGET ERROR =          41567.16           BUDGET ERROR =             -5.57


  PERCENT DISCREPANCY =              0.28    PERCENT DISCREPANCY =             -0.00



1
 SUMMARY VOLUMETRIC BUDGET FOR GSFLOW 
 DATE: 06 16 1991              CUMULATIVE TIME STEP:      16
 MODFLOW STRESS PERIOD     10     CURRENT TIME STEP:     259     ITERATIONS:       6

 -----------------------------------------------------------------------------------

   CUMULATIVE VOLUMES               L**3   RATES FOR THIS TIME STEP           L**3/T
   ------------------                      ------------------------

                                     IN                                         IN
                                     --                                         --
        PRECIPITATION =        1.4671D+07          PRECIPITATION =                  
           STREAMFLOW =                               STREAMFLOW =                  
     GW BOUNDARY FLOW =            159.31       GW BOUNDARY FLOW =              1.52


                                    OUT                                        OUT
                                    ---                                        ---
   EVAPOTRANSPIRATION =        7518678.44     EVAPOTRANSPIRATION =         108584.26
           STREAMFLOW =        6499731.04             STREAMFLOW =          17549.29
     GW BOUNDARY FLOW =           9184.07       GW BOUNDARY FLOW =             33.18

   INFLOWS - OUTFLOWS =         643540.57     INFLOWS - OUTFLOWS =        -126165.22
             --------                                   --------

 TOTAL STORAGE CHANGE =         602037.16         STORAGE CHANGE =        -126153.42
       --------------                             --------------
         LAND SURFACE =          42141.08           LAND SURFACE =          -7293.27
            SOIL ZONE =        3136631.09              SOIL ZONE =        -104884.31
     UNSATURATED ZONE =       -2996965.49       UNSATURATED ZONE =          -9326.07
       SATURATED ZONE =         420223.89         SATURATED ZONE =          -4649.85

 OVERALL BUDGET ERROR =          41503.40           BUDGET ERROR =            -11.80


  PERCENT DISCREPANCY =              0.28    PERCENT DISCREPANCY =             -0.01



1
 SUMMARY VOLUMETRIC BUDGET FOR GSFLOW 
 DATE: 06 23 1991              CUMULATIVE TIME STEP:      23
 MODFLOW STRESS PERIOD     10     CURRENT TIME STEP:     266     ITERATIONS:       7

 -----------------------------------------------------------------------------------

   CUMULATIVE VOLUMES               L**3   RATES FOR THIS TIME STEP           L**3/T
   ------------------                      ------------------------

                                     IN                                         IN
                                     --                                         --
        PRECIPITATION =        1.4671D+07          PRECIPITATION =                  
           STREAMFLOW =                               STREAMFLOW =                  
     GW BOUNDARY FLOW =            170.10       GW BOUNDARY FLOW =              1.56


                                    OUT                                        OUT
                                    ---                                        ---
   EVAPOTRANSPIRATION =        7999941.32     EVAPOTRANSPIRATION =          34649.87
           STREAMFLOW =        6609653.17             STREAMFLOW =          15283.14
     GW BOUNDARY FLOW =           9415.51       GW BOUNDARY FLOW =             33.02

   INFLOWS - OUTFLOWS =          52134.90     INFLOWS - OUTFLOWS =         -49964.47
             --------                                   --------

 TOTAL STORAGE CHANGE =          11863.97         STORAGE CHANGE =         -49664.92
       --------------                             --------------
         LAND SURFACE =          16911.50           LAND SURFACE =          -1658.21
            SOIL ZONE =        2680082.72              SOIL ZONE =         -33947.10
     UNSATURATED ZONE =       -3067906.79       UNSATURATED ZONE =          -8605.78
       SATURATED ZONE =         382769.32         SATURATED ZONE =          -5453.92

 OVERALL BUDGET ERROR =          40270.93           BUDGET ERROR =           -299.54


  PERCENT DISCREPANCY =              0.27    PERCENT DISCREPANCY =             -0.60



1
 SUMMARY VOLUMETRIC BUDGET FOR GSFLOW 
 DATE: 06 30 1991              CUMULATIVE TIME STEP:      30
 MODFLOW STRESS PERIOD     10     CURRENT TIME STEP:     273     ITERATIONS:       8

 -----------------------------------------------------------------------------------

   CUMULATIVE VOLUMES               L**3   RATES FOR THIS TIME STEP           L**3/T
   ------------------                      ------------------------

                                     IN                                         IN
[...]
                                    ---                                        ---
   EVAPOTRANSPIRATION =        7.3748D+07     EVAPOTRANSPIRATION =          85388.58
           STREAMFLOW =        7.0153D+07             STREAMFLOW =          13587.47
     GW BOUNDARY FLOW =          50974.72       GW BOUNDARY FLOW =             24.37

   INFLOWS - OUTFLOWS =       -1.0438D+07     INFLOWS - OUTFLOWS =         -98997.07
             --------                                   --------

 TOTAL STORAGE CHANGE =       -1.0521D+07         STORAGE CHANGE =         -97232.73
       --------------                             --------------
         LAND SURFACE =         524381.77           LAND SURFACE =         -24592.44
            SOIL ZONE =        2191951.38              SOIL ZONE =         -58546.97
     UNSATURATED ZONE =          66750.88       UNSATURATED ZONE =          -9201.70
       SATURATED ZONE =       -1.3304D+07         SATURATED ZONE =          -4891.73

 OVERALL BUDGET ERROR =          83050.09           BUDGET ERROR =          -1764.35


  PERCENT DISCREPANCY =              0.06    PERCENT DISCREPANCY =             -1.80



1
 SUMMARY VOLUMETRIC BUDGET FOR GSFLOW 
 DATE: 09 03 1995              CUMULATIVE TIME STEP:       3
 MODFLOW STRESS PERIOD     61     CURRENT TIME STEP:    1799     ITERATIONS:       6

 -----------------------------------------------------------------------------------

   CUMULATIVE VOLUMES               L**3   RATES FOR THIS TIME STEP           L**3/T
   ------------------                      ------------------------

                                     IN                                         IN
                                     --                                         --
        PRECIPITATION =        1.3351D+08          PRECIPITATION =                  
           STREAMFLOW =                               STREAMFLOW =                  
     GW BOUNDARY FLOW =           5621.09       GW BOUNDARY FLOW =              3.44


                                    OUT                                        OUT
                                    ---                                        ---
   EVAPOTRANSPIRATION =        7.4325D+07     EVAPOTRANSPIRATION =          77349.75
           STREAMFLOW =        7.0235D+07             STREAMFLOW =          10544.82
     GW BOUNDARY FLOW =          51144.68       GW BOUNDARY FLOW =             24.22

   INFLOWS - OUTFLOWS =       -1.1097D+07     INFLOWS - OUTFLOWS =         -87915.34
             --------                                   --------

 TOTAL STORAGE CHANGE =       -1.1176D+07         STORAGE CHANGE =         -87934.09
       --------------                             --------------
         LAND SURFACE =         372015.97           LAND SURFACE =         -19446.39
            SOIL ZONE =        1797336.66              SOIL ZONE =         -52478.59
     UNSATURATED ZONE =           1378.32       UNSATURATED ZONE =          -9381.47
       SATURATED ZONE =       -1.3346D+07         SATURATED ZONE =          -6627.74

 OVERALL BUDGET ERROR =          78076.33           BUDGET ERROR =             18.75


  PERCENT DISCREPANCY =              0.05    PERCENT DISCREPANCY =              0.02



1
 SUMMARY VOLUMETRIC BUDGET FOR GSFLOW 
 DATE: 09 10 1995              CUMULATIVE TIME STEP:      10
 MODFLOW STRESS PERIOD     61     CURRENT TIME STEP:    1806     ITERATIONS:       7

 -----------------------------------------------------------------------------------

   CUMULATIVE VOLUMES               L**3   RATES FOR THIS TIME STEP           L**3/T
   ------------------                      ------------------------

                                     IN                                         IN
                                     --                                         --
        PRECIPITATION =        1.3351D+08          PRECIPITATION =                  
           STREAMFLOW =                               STREAMFLOW =                  
     GW BOUNDARY FLOW =           5645.58       GW BOUNDARY FLOW =              3.54


                                    OUT                                        OUT
                                    ---                                        ---
   EVAPOTRANSPIRATION =        7.4760D+07     EVAPOTRANSPIRATION =          58246.19
           STREAMFLOW =        7.0305D+07             STREAMFLOW =           9466.81
     GW BOUNDARY FLOW =          51314.16       GW BOUNDARY FLOW =             24.18

   INFLOWS - OUTFLOWS =       -1.1603D+07     INFLOWS - OUTFLOWS =         -67733.64
             --------                                   --------

 TOTAL STORAGE CHANGE =       -1.1681D+07         STORAGE CHANGE =         -67741.44
       --------------                             --------------
         LAND SURFACE =         271470.12           LAND SURFACE =         -12572.77
            SOIL ZONE =        1498408.19              SOIL ZONE =         -39800.02
     UNSATURATED ZONE =         -61143.50       UNSATURATED ZONE =          -8784.99
       SATURATED ZONE =       -1.3390D+07         SATURATED ZONE =          -6583.76

 OVERALL BUDGET ERROR =          78127.16           BUDGET ERROR =              7.80


  PERCENT DISCREPANCY =              0.05    PERCENT DISCREPANCY =              0.01



1
 SUMMARY VOLUMETRIC BUDGET FOR GSFLOW 
 DATE: 09 17 1995              CUMULATIVE TIME STEP:      17
 MODFLOW STRESS PERIOD     61     CURRENT TIME STEP:    1813     ITERATIONS:       7

 -----------------------------------------------------------------------------------

   CUMULATIVE VOLUMES               L**3   RATES FOR THIS TIME STEP           L**3/T
   ------------------                      ------------------------

                                     IN                                         IN
                                     --                                         --
        PRECIPITATION =        1.3351D+08          PRECIPITATION =                  
           STREAMFLOW =                               STREAMFLOW =                  
     GW BOUNDARY FLOW =           5670.72       GW BOUNDARY FLOW =              3.63


                                    OUT                                        OUT
                                    ---                                        ---
   EVAPOTRANSPIRATION =        7.5235D+07     EVAPOTRANSPIRATION =          54685.61
           STREAMFLOW =        7.0361D+07             STREAMFLOW =           7866.84
     GW BOUNDARY FLOW =          51482.65       GW BOUNDARY FLOW =             24.08

   INFLOWS - OUTFLOWS =       -1.2134D+07     INFLOWS - OUTFLOWS =         -62572.90
             --------                                   --------

 TOTAL STORAGE CHANGE =       -1.2212D+07         STORAGE CHANGE =         -62579.41
       --------------                             --------------
         LAND SURFACE =         180685.70           LAND SURFACE =          -9600.58
            SOIL ZONE =        1184135.98              SOIL ZONE =         -36025.16
     UNSATURATED ZONE =        -127285.24       UNSATURATED ZONE =          -9279.36
       SATURATED ZONE =       -1.3450D+07         SATURATED ZONE =          -7674.41

 OVERALL BUDGET ERROR =          78180.36           BUDGET ERROR =              6.51


  PERCENT DISCREPANCY =              0.05    PERCENT DISCREPANCY =              0.01



1
 SUMMARY VOLUMETRIC BUDGET FOR GSFLOW 
 DATE: 09 24 1995              CUMULATIVE TIME STEP:      24
 MODFLOW STRESS PERIOD     61     CURRENT TIME STEP:    1820     ITERATIONS:       7

 -----------------------------------------------------------------------------------

   CUMULATIVE VOLUMES               L**3   RATES FOR THIS TIME STEP           L**3/T
   ------------------                      ------------------------

                                     IN                                         IN
                                     --                                         --
        PRECIPITATION =        1.3351D+08          PRECIPITATION =                  
           STREAMFLOW =                               STREAMFLOW =                  
     GW BOUNDARY FLOW =           5696.50       GW BOUNDARY FLOW =              3.72


                                    OUT                                        OUT
                                    ---                                        ---
   EVAPOTRANSPIRATION =        7.5575D+07     EVAPOTRANSPIRATION =          34987.37
           STREAMFLOW =        7.0415D+07             STREAMFLOW =           8093.43
     GW BOUNDARY FLOW =          51651.08       GW BOUNDARY FLOW =             24.10

   INFLOWS - OUTFLOWS =       -1.2527D+07     INFLOWS - OUTFLOWS =         -43101.19
             --------                                   --------

 TOTAL STORAGE CHANGE =       -1.2606D+07         STORAGE CHANGE =         -43105.66
       --------------                             --------------
         LAND SURFACE =         125692.08           LAND SURFACE =          -5511.04
            SOIL ZONE =         962018.12              SOIL ZONE =         -22653.71
     UNSATURATED ZONE =        -188285.61       UNSATURATED ZONE =          -8230.17
       SATURATED ZONE =       -1.3505D+07         SATURATED ZONE =          -6710.84

 OVERALL BUDGET ERROR =          78220.73           BUDGET ERROR =              4.48


  PERCENT DISCREPANCY =              0.05    PERCENT DISCREPANCY =              0.01



1
 SUMMARY VOLUMETRIC BUDGET FOR GSFLOW 
 DATE: 10 01 1995              CUMULATIVE TIME STEP:       1
 MODFLOW STRESS PERIOD     62     CURRENT TIME STEP:    1827     ITERATIONS:       6

 -----------------------------------------------------------------------------------

   CUMULATIVE VOLUMES               L**3   RATES FOR THIS TIME STEP           L**3/T
   ------------------                      ------------------------

                                     IN                                         IN
                                     --                                         --
        PRECIPITATION =        1.3351D+08          PRECIPITATION =                  
           STREAMFLOW =                               STREAMFLOW =                  
     GW BOUNDARY FLOW =           5722.88       GW BOUNDARY FLOW =              3.80


                                    OUT                                        OUT
                                    ---                                        ---
   EVAPOTRANSPIRATION =        7.5713D+07     EVAPOTRANSPIRATION =          20803.88
           STREAMFLOW =        7.0477D+07             STREAMFLOW =           8766.20
     GW BOUNDARY FLOW =          51820.29       GW BOUNDARY FLOW =             24.17

   INFLOWS - OUTFLOWS =       -1.2728D+07     INFLOWS - OUTFLOWS =         -29590.45
             --------                                   --------

 TOTAL STORAGE CHANGE =       -1.2806D+07         STORAGE CHANGE =         -29596.67
       --------------                             --------------
         LAND SURFACE =         102504.93           LAND SURFACE =          -2862.19
            SOIL ZONE =         874637.73              SOIL ZONE =         -13523.26
     UNSATURATED ZONE =        -241644.34       UNSATURATED ZONE =          -7503.97
       SATURATED ZONE =       -1.3542D+07         SATURATED ZONE =          -5707.35

 OVERALL BUDGET ERROR =          78258.04           BUDGET ERROR =              6.23


  PERCENT DISCREPANCY =              0.05    PERCENT DISCREPANCY =              0.02



1
 SUMMARY VOLUMETRIC BUDGET FOR GSFLOW 
 DATE: 10 08 1995              CUMULATIVE TIME STEP:       8
 MODFLOW STRESS PERIOD     62     CURRENT TIME STEP:    1834     ITERATIONS:       6

 -----------------------------------------------------------------------------------

   CUMULATIVE VOLUMES               L**3   RATES FOR THIS TIME STEP           L**3/T
   ------------------                      ------------------------

                                     IN                                         IN
                                     --                                         --
        PRECIPITATION =        1.3351D+08          PRECIPITATION =                  
           STREAMFLOW =                               STREAMFLOW =                  
     GW BOUNDARY FLOW =           5749.81       GW BOUNDARY FLOW =              3.88


                                    OUT                                        OUT
                                    ---                                        ---
   EVAPOTRANSPIRATION =        7.5875D+07     EVAPOTRANSPIRATION =          20189.02
           STREAMFLOW =        7.0536D+07             STREAMFLOW =           8457.88
     GW BOUNDARY FLOW =          51989.38       GW BOUNDARY FLOW =             24.17

   INFLOWS - OUTFLOWS =       -1.2949D+07     INFLOWS - OUTFLOWS =         -28667.18
             --------                                   --------

 TOTAL STORAGE CHANGE =       -1.3027D+07         STORAGE CHANGE =         -28672.32
       --------------                             --------------
         LAND SURFACE =          81951.52           LAND SURFACE =          -2502.54
            SOIL ZONE =         771413.28              SOIL ZONE =         -12617.57
     UNSATURATED ZONE =        -293729.63       UNSATURATED ZONE =          -7265.27
       SATURATED ZONE =       -1.3587D+07         SATURATED ZONE =          -6287.03

 OVERALL BUDGET ERROR =          78282.05           BUDGET ERROR =              5.13


  PERCENT DISCREPANCY =              0.05    PERCENT DISCREPANCY =              0.02



1
 SUMMARY VOLUMETRIC BUDGET FOR GSFLOW 
 DATE: 10 15 1995              CUMULATIVE TIME STEP:      15
 MODFLOW STRESS PERIOD     62     CURRENT TIME STEP:    1841     ITERATIONS:       6

 -----------------------------------------------------------------------------------

   CUMULATIVE VOLUMES               L**3   RATES FOR THIS TIME STEP           L**3/T
   ------------------                      ------------------------

                                     IN                                         IN
                                     --                                         --
        PRECIPITATION =        1.3351D+08          PRECIPITATION =                  
           STREAMFLOW =                               STREAMFLOW =                  
     GW BOUNDARY FLOW =           5777.25       GW BOUNDARY FLOW =              3.95


                                    OUT                                        OUT
                                    ---                                        ---
   EVAPOTRANSPIRATION =        7.6033D+07     EVAPOTRANSPIRATION =          25360.37
           STREAMFLOW =        7.0593D+07             STREAMFLOW =           7832.36
     GW BOUNDARY FLOW =          52158.39       GW BOUNDARY FLOW =             24.13

   INFLOWS - OUTFLOWS =       -1.3164D+07     INFLOWS - OUTFLOWS =         -33212.91
             --------                                   --------

 TOTAL STORAGE CHANGE =       -1.3242D+07         STORAGE CHANGE =         -33216.91
       --------------                             --------------
         LAND SURFACE =          63226.18           LAND SURFACE =          -2687.15
            SOIL ZONE =         674673.91              SOIL ZONE =         -15332.17
     UNSATURATED ZONE =        -345694.33       UNSATURATED ZONE =          -7647.95
       SATURATED ZONE =       -1.3635D+07         SATURATED ZONE =          -7549.73

 OVERALL BUDGET ERROR =          78297.22           BUDGET ERROR =              4.01


  PERCENT DISCREPANCY =              0.05    PERCENT DISCREPANCY =              0.01



1
 SUMMARY VOLUMETRIC BUDGET FOR GSFLOW 
 DATE: 10 22 1995              CUMULATIVE TIME STEP:      22
 MODFLOW STRESS PERIOD     62     CURRENT TIME STEP:    1848     ITERATIONS:       7

 -----------------------------------------------------------------------------------

   CUMULATIVE VOLUMES               L**3   RATES FOR THIS TIME STEP           L**3/T
   ------------------                      ------------------------

                                     IN                                         IN
                                     --                                         --
        PRECIPITATION =        1.3351D+08          PRECIPITATION =                  
           STREAMFLOW =                               STREAMFLOW =                  
     GW BOUNDARY FLOW =           5805.17       GW BOUNDARY FLOW =              4.02


                                    OUT                                        OUT
                                    ---                                        ---
   EVAPOTRANSPIRATION =        7.6176D+07     EVAPOTRANSPIRATION =           5919.67
           STREAMFLOW =        7.0649D+07             STREAMFLOW =           9003.03
     GW BOUNDARY FLOW =          52327.37       GW BOUNDARY FLOW =             24.23

   INFLOWS - OUTFLOWS =       -1.3362D+07     INFLOWS - OUTFLOWS =         -14942.92
             --------                                   --------

 TOTAL STORAGE CHANGE =       -1.3441D+07         STORAGE CHANGE =         -14944.78
       --------------                             --------------
         LAND SURFACE =          49141.37           LAND SURFACE =           -667.02
            SOIL ZONE =         590168.15              SOIL ZONE =          -3520.30
     UNSATURATED ZONE =        -395776.97       UNSATURATED ZONE =          -6305.01
       SATURATED ZONE =       -1.3684D+07         SATURATED ZONE =          -4452.54

 OVERALL BUDGET ERROR =          78314.37           BUDGET ERROR =              1.86


  PERCENT DISCREPANCY =              0.05    PERCENT DISCREPANCY =              0.01



1
 SUMMARY VOLUMETRIC BUDGET FOR GSFLOW 
 DATE: 10 29 1995              CUMULATIVE TIME STEP:      29
 MODFLOW STRESS PERIOD     62     CURRENT TIME STEP:    1855     ITERATIONS:       5

 -----------------------------------------------------------------------------------

   CUMULATIVE VOLUMES               L**3   RATES FOR THIS TIME STEP           L**3/T
   ------------------                      ------------------------

                                     IN                                         IN
                                     --                                         --
        PRECIPITATION =        1.3351D+08          PRECIPITATION =                  
           STREAMFLOW =                               STREAMFLOW =                  
     GW BOUNDARY FLOW =           5833.52       GW BOUNDARY FLOW =              4.07


                                    OUT                                        OUT
                                    ---                                        ---
   EVAPOTRANSPIRATION =        7.6262D+07     EVAPOTRANSPIRATION =          15006.25
           STREAMFLOW =        7.0708D+07             STREAMFLOW =           8126.12
     GW BOUNDARY FLOW =          52496.75       GW BOUNDARY FLOW =             24.17

   INFLOWS - OUTFLOWS =       -1.3508D+07     INFLOWS - OUTFLOWS =         -23152.46
             --------                                   --------

 TOTAL STORAGE CHANGE =       -1.3586D+07         STORAGE CHANGE =         -23156.46
       --------------                             --------------
         LAND SURFACE =          42922.70           LAND SURFACE =          -1382.99
            SOIL ZONE =         539532.08              SOIL ZONE =          -8358.22
     UNSATURATED ZONE =        -441515.99       UNSATURATED ZONE =          -6514.54
       SATURATED ZONE =       -1.3727D+07         SATURATED ZONE =          -6900.80

 OVERALL BUDGET ERROR =          78336.11           BUDGET ERROR =              4.00


  PERCENT DISCREPANCY =              0.05    PERCENT DISCREPANCY =              0.02



