1
 SUMMARY VOLUMETRIC BUDGET FOR GSFLOW 
 DATE: 10 07 1990              CUMULATIVE TIME STEP:       7
 MODFLOW STRESS PERIOD      2     CURRENT TIME STEP:       7     ITERATIONS:       7

 -----------------------------------------------------------------------------------

   CUMULATIVE VOLUMES               L**3   RATES FOR THIS TIME STEP           L**3/T
   ------------------                      ------------------------

                                     IN                                         IN
                                     --                                         --
        PRECIPITATION =                            PRECIPITATION =                  
           STREAMFLOW =                               STREAMFLOW =                  
     GW BOUNDARY FLOW =                         GW BOUNDARY FLOW =                  


                                    OUT                                        OUT
                                    ---                                        ---
   EVAPOTRANSPIRATION =         381274.28     EVAPOTRANSPIRATION =          12557.77
           STREAMFLOW =          45744.87             STREAMFLOW =           8124.52
     GW BOUNDARY FLOW =            252.78       GW BOUNDARY FLOW =             36.30

   INFLOWS - OUTFLOWS =        -427271.93     INFLOWS - OUTFLOWS =         -20718.60
             --------                                   --------

 TOTAL STORAGE CHANGE =        -425815.52         STORAGE CHANGE =         -20692.96
       --------------                             --------------
         LAND SURFACE =                             LAND SURFACE =                  
            SOIL ZONE =         -33207.91              SOIL ZONE =          -1003.49
     UNSATURATED ZONE =        -500150.39       UNSATURATED ZONE =         -34306.04
       SATURATED ZONE =         107542.78         SATURATED ZONE =          14616.57

 OVERALL BUDGET ERROR =          -1456.40           BUDGET ERROR =            -25.64


  PERCENT DISCREPANCY =             -0.34    PERCENT DISCREPANCY =             -0.12



1
 SUMMARY VOLUMETRIC BUDGET FOR GSFLOW 
 DATE: 10 14 1990              CUMULATIVE TIME STEP:      14
 MODFLOW STRESS PERIOD      2     CURRENT TIME STEP:      14     ITERATIONS:       6

 -----------------------------------------------------------------------------------

   CUMULATIVE VOLUMES               L**3   RATES FOR THIS TIME STEP           L**3/T
   ------------------                      ------------------------

                                     IN                                         IN
                                     --                                         --
        PRECIPITATION =                            PRECIPITATION =                  
           STREAMFLOW =                               STREAMFLOW =                  
     GW BOUNDARY FLOW =                         GW BOUNDARY FLOW =                  


                                    OUT                                        OUT
                                    ---                                        ---
   EVAPOTRANSPIRATION =         659616.65     EVAPOTRANSPIRATION =          42722.87
           STREAMFLOW =         100594.96             STREAMFLOW =           7421.50
     GW BOUNDARY FLOW =            506.62       GW BOUNDARY FLOW =             36.24

   INFLOWS - OUTFLOWS =        -760718.23     INFLOWS - OUTFLOWS =         -50180.61
             --------                                   --------

 TOTAL STORAGE CHANGE =        -759001.58         STORAGE CHANGE =         -50163.25
       --------------                             --------------
         LAND SURFACE =                             LAND SURFACE =                  
            SOIL ZONE =         -57924.68              SOIL ZONE =          -4415.36
     UNSATURATED ZONE =        -874272.48       UNSATURATED ZONE =         -52543.05
       SATURATED ZONE =         173195.58         SATURATED ZONE =           6795.15

 OVERALL BUDGET ERROR =          -1716.66           BUDGET ERROR =            -17.36


  PERCENT DISCREPANCY =             -0.23    PERCENT DISCREPANCY =             -0.03



1
 SUMMARY VOLUMETRIC BUDGET FOR GSFLOW 
 DATE: 10 21 1990              CUMULATIVE TIME STEP:      21
 MODFLOW STRESS PERIOD      2     CURRENT TIME STEP:      21     ITERATIONS:       6

 -----------------------------------------------------------------------------------

   CUMULATIVE VOLUMES               L**3   RATES FOR THIS TIME STEP           L**3/T
   ------------------                      ------------------------

                                     IN                                         IN
                                     --                                         --
        PRECIPITATION =         188432.87          PRECIPITATION =                  
           STREAMFLOW =                               STREAMFLOW =                  
     GW BOUNDARY FLOW =                         GW BOUNDARY FLOW =                  


                                    OUT                                        OUT
                                    ---                                        ---
   EVAPOTRANSPIRATION =         801978.18     EVAPOTRANSPIRATION =          37118.94
           STREAMFLOW =         163660.18             STREAMFLOW =          10145.99
     GW BOUNDARY FLOW =            760.81       GW BOUNDARY FLOW =             36.37

   INFLOWS - OUTFLOWS =        -777966.31     INFLOWS - OUTFLOWS =         -47301.30
             --------                                   --------

 TOTAL STORAGE CHANGE =        -777466.15         STORAGE CHANGE =         -47309.22
       --------------                             --------------
         LAND SURFACE =          15977.62           LAND SURFACE =         -34861.64
            SOIL ZONE =          55566.71              SOIL ZONE =          -1277.75
     UNSATURATED ZONE =       -1086176.97       UNSATURATED ZONE =         -21865.54
       SATURATED ZONE =         237166.49         SATURATED ZONE =          10695.71

 OVERALL BUDGET ERROR =           -500.16           BUDGET ERROR =              7.93


  PERCENT DISCREPANCY =             -0.05    PERCENT DISCREPANCY =              0.02



1
 SUMMARY VOLUMETRIC BUDGET FOR GSFLOW 
 DATE: 10 28 1990              CUMULATIVE TIME STEP:      28
 MODFLOW STRESS PERIOD      2     CURRENT TIME STEP:      28     ITERATIONS:       7

 -----------------------------------------------------------------------------------

   CUMULATIVE VOLUMES               L**3   RATES FOR THIS TIME STEP           L**3/T
   ------------------                      ------------------------

                                     IN                                         IN
                                     --                                         --
        PRECIPITATION =         188432.87          PRECIPITATION =                  
           STREAMFLOW =                               STREAMFLOW =                  
     GW BOUNDARY FLOW =                         GW BOUNDARY FLOW =                  


                                    OUT                                        OUT
                                    ---                                        ---
   EVAPOTRANSPIRATION =         927289.72     EVAPOTRANSPIRATION =          11164.47
           STREAMFLOW =         225331.90             STREAMFLOW =           8992.96
     GW BOUNDARY FLOW =           1014.01       GW BOUNDARY FLOW =             36.13

   INFLOWS - OUTFLOWS =        -965202.75     INFLOWS - OUTFLOWS =         -20193.56
             --------                                   --------

 TOTAL STORAGE CHANGE =        -964689.90         STORAGE CHANGE =         -20192.21
       --------------                             --------------
         LAND SURFACE =                             LAND SURFACE =                  
            SOIL ZONE =          26475.24              SOIL ZONE =          -3291.98
     UNSATURATED ZONE =       -1270423.87       UNSATURATED ZONE =         -23125.74
       SATURATED ZONE =         279258.73         SATURATED ZONE =           6225.51

 OVERALL BUDGET ERROR =           -512.86           BUDGET ERROR =             -1.35


  PERCENT DISCREPANCY =             -0.04    PERCENT DISCREPANCY =             -0.01



1
 SUMMARY VOLUMETRIC BUDGET FOR GSFLOW 
 DATE: 11 04 1990              CUMULATIVE TIME STEP:       4
 MODFLOW STRESS PERIOD      3     CURRENT TIME STEP:      35     ITERATIONS:       6

 -----------------------------------------------------------------------------------

   CUMULATIVE VOLUMES               L**3   RATES FOR THIS TIME STEP           L**3/T
   ------------------                      ------------------------

                                     IN                                         IN
                                     --                                         --
        PRECIPITATION =         703113.06          PRECIPITATION =                  
           STREAMFLOW =                               STREAMFLOW =                  
     GW BOUNDARY FLOW =                         GW BOUNDARY FLOW =                  


                                    OUT                                        OUT
                                    ---                                        ---
   EVAPOTRANSPIRATION =         986908.08     EVAPOTRANSPIRATION =          26063.10
           STREAMFLOW =         296511.12             STREAMFLOW =          10669.76
     GW BOUNDARY FLOW =           1267.07       GW BOUNDARY FLOW =             36.14

   INFLOWS - OUTFLOWS =        -581573.21     INFLOWS - OUTFLOWS =         -36768.99
             --------                                   --------

 TOTAL STORAGE CHANGE =        -585989.03         STORAGE CHANGE =         -38039.15
       --------------                             --------------
         LAND SURFACE =          71009.70           LAND SURFACE =         -84159.07
            SOIL ZONE =         418917.73              SOIL ZONE =          56784.38
     UNSATURATED ZONE =       -1415988.12       UNSATURATED ZONE =         -20062.44
       SATURATED ZONE =         340071.65         SATURATED ZONE =           9397.97

 OVERALL BUDGET ERROR =           4415.81           BUDGET ERROR =           1270.16

  ***WARNING, FLUX RATES OFF > 3%

  PERCENT DISCREPANCY =              0.34    PERCENT DISCREPANCY =              3.40



1
 SUMMARY VOLUMETRIC BUDGET FOR GSFLOW 
 DATE: 11 11 1990              CUMULATIVE TIME STEP:      11
 MODFLOW STRESS PERIOD      3     CURRENT TIME STEP:      42     ITERATIONS:       6

 -----------------------------------------------------------------------------------

   CUMULATIVE VOLUMES               L**3   RATES FOR THIS TIME STEP           L**3/T
   ------------------                      ------------------------

                                     IN                                         IN
                                     --                                         --
        PRECIPITATION =         703113.06          PRECIPITATION =                  
           STREAMFLOW =                               STREAMFLOW =                  
     GW BOUNDARY FLOW =                         GW BOUNDARY FLOW =                  


                                    OUT                                        OUT
                                    ---                                        ---
   EVAPOTRANSPIRATION =        1060217.75     EVAPOTRANSPIRATION =          12361.28
           STREAMFLOW =         367635.54             STREAMFLOW =           9650.00
     GW BOUNDARY FLOW =           1519.17       GW BOUNDARY FLOW =             35.92

   INFLOWS - OUTFLOWS =        -726259.40     INFLOWS - OUTFLOWS =         -22047.21
             --------                                   --------

 TOTAL STORAGE CHANGE =        -730855.10         STORAGE CHANGE =         -22046.07
       --------------                             --------------
         LAND SURFACE =            295.92           LAND SURFACE =           -859.89
            SOIL ZONE =         435211.67              SOIL ZONE =          -6117.58
     UNSATURATED ZONE =       -1555713.27       UNSATURATED ZONE =         -19962.75
       SATURATED ZONE =         389350.56         SATURATED ZONE =           4894.14

 OVERALL BUDGET ERROR =           4595.70           BUDGET ERROR =             -1.14


  PERCENT DISCREPANCY =              0.32    PERCENT DISCREPANCY =             -0.01



1
 SUMMARY VOLUMETRIC BUDGET FOR GSFLOW 
 DATE: 11 18 1990              CUMULATIVE TIME STEP:      18
 MODFLOW STRESS PERIOD      3     CURRENT TIME STEP:      49     ITERATIONS:       6

 -----------------------------------------------------------------------------------

   CUMULATIVE VOLUMES               L**3   RATES FOR THIS TIME STEP           L**3/T
   ------------------                      ------------------------

                                     IN                                         IN
                                     --                                         --
        PRECIPITATION =         747883.35          PRECIPITATION =                  
           STREAMFLOW =                               STREAMFLOW =                  
     GW BOUNDARY FLOW =                         GW BOUNDARY FLOW =                  


                                    OUT                                        OUT
                                    ---                                        ---
   EVAPOTRANSPIRATION =        1129666.89     EVAPOTRANSPIRATION =           5430.46
           STREAMFLOW =         439533.11             STREAMFLOW =          10703.21
     GW BOUNDARY FLOW =           1770.49       GW BOUNDARY FLOW =             35.88

   INFLOWS - OUTFLOWS =        -823087.14     INFLOWS - OUTFLOWS =         -16169.55
             --------                                   --------

 TOTAL STORAGE CHANGE =        -827721.15         STORAGE CHANGE =         -16180.93
       --------------                             --------------
         LAND SURFACE =          10077.61           LAND SURFACE =          -4199.79
            SOIL ZONE =         417312.79              SOIL ZONE =           -687.69
     UNSATURATED ZONE =       -1689197.94       UNSATURATED ZONE =         -18640.01
       SATURATED ZONE =         434086.35         SATURATED ZONE =           7346.55

 OVERALL BUDGET ERROR =           4634.01           BUDGET ERROR =             11.37


  PERCENT DISCREPANCY =              0.29    PERCENT DISCREPANCY =              0.07



1
 SUMMARY VOLUMETRIC BUDGET FOR GSFLOW 
 DATE: 11 25 1990              CUMULATIVE TIME STEP:      25
 MODFLOW STRESS PERIOD      3     CURRENT TIME STEP:      56     ITERATIONS:       6

 -----------------------------------------------------------------------------------

   CUMULATIVE VOLUMES               L**3   RATES FOR THIS TIME STEP           L**3/T
   ------------------                      ------------------------

                                     IN                                         IN
                                     --                                         --
        PRECIPITATION =        1009043.38          PRECIPITATION =         186542.88
           STREAMFLOW =                               STREAMFLOW =                  
     GW BOUNDARY FLOW =                         GW BOUNDARY FLOW =                  


                                    OUT                                        OUT
                                    ---                                        ---
   EVAPOTRANSPIRATION =        1190402.92     EVAPOTRANSPIRATION =           3817.96
           STREAMFLOW =         515661.47             STREAMFLOW =          10899.94
     GW BOUNDARY FLOW =           2021.44       GW BOUNDARY FLOW =             35.79

   INFLOWS - OUTFLOWS =        -699042.45     INFLOWS - OUTFLOWS =         171789.18
             --------                                   --------

 TOTAL STORAGE CHANGE =        -705822.28         STORAGE CHANGE =         169936.78
       --------------                             --------------
         LAND SURFACE =          92124.67           LAND SURFACE =          75233.82
            SOIL ZONE =         535310.89              SOIL ZONE =         106282.77
     UNSATURATED ZONE =       -1816865.22       UNSATURATED ZONE =         -17923.87
       SATURATED ZONE =         483607.31         SATURATED ZONE =           6344.06

 OVERALL BUDGET ERROR =           6779.83           BUDGET ERROR =           1852.40


  PERCENT DISCREPANCY =              0.40    PERCENT DISCREPANCY =              1.00



1
 SUMMARY VOLUMETRIC BUDGET FOR GSFLOW 
 DATE: 12 02 1990              CUMULATIVE TIME STEP:       2
 MODFLOW STRESS PERIOD      4     CURRENT TIME STEP:      63     ITERATIONS:       6

 -----------------------------------------------------------------------------------

   CUMULATIVE VOLUMES               L**3   RATES FOR THIS TIME STEP           L**3/T
   ------------------                      ------------------------

                                     IN                                         IN
                                     --                                         --
        PRECIPITATION =        1449284.55          PRECIPITATION =                  
           STREAMFLOW =                               STREAMFLOW =                  
     GW BOUNDARY FLOW =                         GW BOUNDARY FLOW =                  


                                    OUT                                        OUT
                                    ---                                        ---
   EVAPOTRANSPIRATION =        1197971.98     EVAPOTRANSPIRATION =            374.89
           STREAMFLOW =         593029.17             STREAMFLOW =          11092.19
     GW BOUNDARY FLOW =           2271.93       GW BOUNDARY FLOW =             35.77

   INFLOWS - OUTFLOWS =        -343988.53     INFLOWS - OUTFLOWS =         -11502.85
             --------                                   --------

 TOTAL STORAGE CHANGE =        -351882.53         STORAGE CHANGE =         -11515.56
       --------------                             --------------
         LAND SURFACE =         493448.43           LAND SURFACE =           -453.37
            SOIL ZONE =         565885.32              SOIL ZONE =            120.80
     UNSATURATED ZONE =       -1939764.01       UNSATURATED ZONE =         -17264.08
       SATURATED ZONE =         528547.65         SATURATED ZONE =           6081.08

 OVERALL BUDGET ERROR =           7894.00           BUDGET ERROR =             12.71


  PERCENT DISCREPANCY =              0.44    PERCENT DISCREPANCY =              0.11



1
 SUMMARY VOLUMETRIC BUDGET FOR GSFLOW 
 DATE: 12 09 1990              CUMULATIVE TIME STEP:       9
 MODFLOW STRESS PERIOD      4     CURRENT TIME STEP:      70     ITERATIONS:       6

 -----------------------------------------------------------------------------------

   CUMULATIVE VOLUMES               L**3   RATES FOR THIS TIME STEP           L**3/T
   ------------------                      ------------------------

                                     IN                                         IN
                                     --                                         --
        PRECIPITATION =        1449284.55          PRECIPITATION =                  
           STREAMFLOW =                               STREAMFLOW =                  
     GW BOUNDARY FLOW =                         GW BOUNDARY FLOW =                  


                                    OUT                                        OUT
                                    ---                                        ---
   EVAPOTRANSPIRATION =        1276460.67     EVAPOTRANSPIRATION =          14145.54
           STREAMFLOW =         670835.86             STREAMFLOW =          10906.27
     GW BOUNDARY FLOW =           2521.89       GW BOUNDARY FLOW =             35.65

   INFLOWS - OUTFLOWS =        -500533.87     INFLOWS - OUTFLOWS =         -25087.46
             --------                                   --------

 TOTAL STORAGE CHANGE =        -512895.80         STORAGE CHANGE =         -25208.78
       --------------                             --------------
         LAND SURFACE =          66382.66           LAND SURFACE =         -46525.53
            SOIL ZONE =         913442.93              SOIL ZONE =          33964.26
     UNSATURATED ZONE =       -2057614.27       UNSATURATED ZONE =         -16498.16
       SATURATED ZONE =         564892.76         SATURATED ZONE =           3850.65

 OVERALL BUDGET ERROR =          12361.92           BUDGET ERROR =            121.32


  PERCENT DISCREPANCY =              0.63    PERCENT DISCREPANCY =              0.48



1
 SUMMARY VOLUMETRIC BUDGET FOR GSFLOW 
 DATE: 12 16 1990              CUMULATIVE TIME STEP:      16
 MODFLOW STRESS PERIOD      4     CURRENT TIME STEP:      77     ITERATIONS:       6

 -----------------------------------------------------------------------------------

   CUMULATIVE VOLUMES               L**3   RATES FOR THIS TIME STEP           L**3/T
   ------------------                      ------------------------

                                     IN                                         IN
                                     --                                         --
        PRECIPITATION =        1804962.84          PRECIPITATION =                  
           STREAMFLOW =                               STREAMFLOW =                  
     GW BOUNDARY FLOW =                         GW BOUNDARY FLOW =                  


                                    OUT                                        OUT
                                    ---                                        ---
   EVAPOTRANSPIRATION =        1305054.80     EVAPOTRANSPIRATION =                  
           STREAMFLOW =         750625.90             STREAMFLOW =          11534.55
     GW BOUNDARY FLOW =           2771.30       GW BOUNDARY FLOW =             35.61

   INFLOWS - OUTFLOWS =        -253489.17     INFLOWS - OUTFLOWS =         -11570.16
             --------                                   --------

 TOTAL STORAGE CHANGE =        -268146.65         STORAGE CHANGE =         -11585.87
       --------------                             --------------
         LAND SURFACE =         256077.36           LAND SURFACE =                  
            SOIL ZONE =        1051280.52              SOIL ZONE =            -28.18
     UNSATURATED ZONE =       -2171016.08       UNSATURATED ZONE =         -15950.38
       SATURATED ZONE =         595511.40         SATURATED ZONE =           4392.68

 OVERALL BUDGET ERROR =          14657.49           BUDGET ERROR =             15.71


  PERCENT DISCREPANCY =              0.71    PERCENT DISCREPANCY =              0.14



1
 SUMMARY VOLUMETRIC BUDGET FOR GSFLOW 
 DATE: 12 23 1990              CUMULATIVE TIME STEP:      23
 MODFLOW STRESS PERIOD      4     CURRENT TIME STEP:      84     ITERATIONS:       6

 -----------------------------------------------------------------------------------

   CUMULATIVE VOLUMES               L**3   RATES FOR THIS TIME STEP           L**3/T
   ------------------                      ------------------------

                                     IN                                         IN
                                     --                                         --
        PRECIPITATION =        2276236.55          PRECIPITATION =                  
           STREAMFLOW =                               STREAMFLOW =                  
     GW BOUNDARY FLOW =              0.08       GW BOUNDARY FLOW =              0.04


                                    OUT                                        OUT
                                    ---                                        ---
   EVAPOTRANSPIRATION =        1306429.45     EVAPOTRANSPIRATION =                  
           STREAMFLOW =         831567.74             STREAMFLOW =          11584.84
     GW BOUNDARY FLOW =           3020.34       GW BOUNDARY FLOW =             35.57

   INFLOWS - OUTFLOWS =         135219.10     INFLOWS - OUTFLOWS =         -11620.38
             --------                                   --------

 TOTAL STORAGE CHANGE =         120460.72         STORAGE CHANGE =         -11633.88
       --------------                             --------------
         LAND SURFACE =         725980.66           LAND SURFACE =                  
            SOIL ZONE =        1051425.10              SOIL ZONE =             49.94
     UNSATURATED ZONE =       -2280244.82       UNSATURATED ZONE =         -15356.23
       SATURATED ZONE =         623299.59         SATURATED ZONE =           3672.41

 OVERALL BUDGET ERROR =          14758.38           BUDGET ERROR =             13.50


  PERCENT DISCREPANCY =              0.65    PERCENT DISCREPANCY =              0.12



1
 SUMMARY VOLUMETRIC BUDGET FOR GSFLOW 
 DATE: 12 30 1990              CUMULATIVE TIME STEP:      30
 MODFLOW STRESS PERIOD      4     CURRENT TIME STEP:      91     ITERATIONS:       5

 -----------------------------------------------------------------------------------

   CUMULATIVE VOLUMES               L**3   RATES FOR THIS TIME STEP           L**3/T
   ------------------                      ------------------------

                                     IN                                         IN
                                     --                                         --
        PRECIPITATION =        2276236.55          PRECIPITATION =                  
           STREAMFLOW =                               STREAMFLOW =                  
     GW BOUNDARY FLOW =              0.77       GW BOUNDARY FLOW =              0.14


                                    OUT                                        OUT
                                    ---                                        ---
   EVAPOTRANSPIRATION =        1307182.09     EVAPOTRANSPIRATION =                  
           STREAMFLOW =         912903.35             STREAMFLOW =          11646.94
     GW BOUNDARY FLOW =           3269.45       GW BOUNDARY FLOW =             35.60

   INFLOWS - OUTFLOWS =          52882.43     INFLOWS - OUTFLOWS =         -11682.40
             --------                                   --------

 TOTAL STORAGE CHANGE =          38044.81         STORAGE CHANGE =         -11692.16
       --------------                             --------------
         LAND SURFACE =         725228.17           LAND SURFACE =                  
            SOIL ZONE =        1051974.11              SOIL ZONE =             97.36
     UNSATURATED ZONE =       -2385579.65       UNSATURATED ZONE =         -14811.01
       SATURATED ZONE =         646421.94         SATURATED ZONE =           3021.49

 OVERALL BUDGET ERROR =          14837.62           BUDGET ERROR =              9.76


  PERCENT DISCREPANCY =              0.65    PERCENT DISCREPANCY =              0.08



1
 SUMMARY VOLUMETRIC BUDGET FOR GSFLOW 
 DATE: 01 06 1991              CUMULATIVE TIME STEP:       6
 MODFLOW STRESS PERIOD      5     CURRENT TIME STEP:      98     ITERATIONS:       5

 -----------------------------------------------------------------------------------

   CUMULATIVE VOLUMES               L**3   RATES FOR THIS TIME STEP           L**3/T
   ------------------                      ------------------------

                                     IN                                         IN
                                     --                                         --
        PRECIPITATION =        2276236.55          PRECIPITATION =                  
           STREAMFLOW =                               STREAMFLOW =                  
     GW BOUNDARY FLOW =              2.09       GW BOUNDARY FLOW =              0.22


                                    OUT                                        OUT
                                    ---                                        ---
   EVAPOTRANSPIRATION =        1330459.77     EVAPOTRANSPIRATION =           2584.60
           STREAMFLOW =         994850.78             STREAMFLOW =          11745.06
     GW BOUNDARY FLOW =           3519.34       GW BOUNDARY FLOW =             35.75

   INFLOWS - OUTFLOWS =         -52591.24     INFLOWS - OUTFLOWS =         -14365.19
             --------                                   --------

 TOTAL STORAGE CHANGE =         -69899.43         STORAGE CHANGE =         -14492.26
       --------------                             --------------
         LAND SURFACE =         620283.30           LAND SURFACE =          -6112.33
            SOIL ZONE =        1131911.69              SOIL ZONE =           3501.63
     UNSATURATED ZONE =       -2486957.55       UNSATURATED ZONE =         -14241.42
       SATURATED ZONE =         664862.86         SATURATED ZONE =           2359.86

 OVERALL BUDGET ERROR =          17308.19           BUDGET ERROR =            127.07


  PERCENT DISCREPANCY =              0.74    PERCENT DISCREPANCY =              0.88



1
 SUMMARY VOLUMETRIC BUDGET FOR GSFLOW 
 DATE: 01 13 1991              CUMULATIVE TIME STEP:      13
 MODFLOW STRESS PERIOD      5     CURRENT TIME STEP:     105     ITERATIONS:       6

 -----------------------------------------------------------------------------------

   CUMULATIVE VOLUMES               L**3   RATES FOR THIS TIME STEP           L**3/T
   ------------------                      ------------------------

                                     IN                                         IN
                                     --                                         --
        PRECIPITATION =        2596386.94          PRECIPITATION =          10327.43
           STREAMFLOW =                               STREAMFLOW =                  
     GW BOUNDARY FLOW =              4.02       GW BOUNDARY FLOW =              0.31


                                    OUT                                        OUT
                                    ---                                        ---
   EVAPOTRANSPIRATION =        1391041.91     EVAPOTRANSPIRATION =          17389.26
           STREAMFLOW =        1077225.76             STREAMFLOW =          11741.62
     GW BOUNDARY FLOW =           3769.57       GW BOUNDARY FLOW =             35.73

   INFLOWS - OUTFLOWS =         124353.72     INFLOWS - OUTFLOWS =         -18838.87
             --------                                   --------

 TOTAL STORAGE CHANGE =         102024.42         STORAGE CHANGE =         -20124.60
       --------------                             --------------
         LAND SURFACE =         586364.86           LAND SURFACE =        -135127.18
            SOIL ZONE =        1422192.07              SOIL ZONE =         127608.93
     UNSATURATED ZONE =       -2584277.11       UNSATURATED ZONE =         -13716.52
       SATURATED ZONE =         677744.27         SATURATED ZONE =           1110.16

 OVERALL BUDGET ERROR =          22329.30           BUDGET ERROR =           1285.73

  ***WARNING, FLUX RATES OFF > 3%

  PERCENT DISCREPANCY =              0.86    PERCENT DISCREPANCY =              4.31



1
 SUMMARY VOLUMETRIC BUDGET FOR GSFLOW 
 DATE: 01 20 1991              CUMULATIVE TIME STEP:      20
 MODFLOW STRESS PERIOD      5     CURRENT TIME STEP:     112     ITERATIONS:       5

 -----------------------------------------------------------------------------------

   CUMULATIVE VOLUMES               L**3   RATES FOR THIS TIME STEP           L**3/T
   ------------------                      ------------------------

                                     IN                                         IN
                                     --                                         --
        PRECIPITATION =        2596386.94          PRECIPITATION =                  
           STREAMFLOW =                               STREAMFLOW =                  
     GW BOUNDARY FLOW =              6.55       GW BOUNDARY FLOW =              0.40


                                    OUT                                        OUT
                                    ---                                        ---
   EVAPOTRANSPIRATION =        1461712.31     EVAPOTRANSPIRATION =           1892.63
           STREAMFLOW =        1160446.68             STREAMFLOW =          11907.34
     GW BOUNDARY FLOW =           4019.79       GW BOUNDARY FLOW =             35.74

   INFLOWS - OUTFLOWS =         -29785.29     INFLOWS - OUTFLOWS =         -13835.32
             --------                                   --------

 TOTAL STORAGE CHANGE =         -53165.27         STORAGE CHANGE =         -13844.42
       --------------                             --------------
         LAND SURFACE =         422210.59           LAND SURFACE =           -295.67
            SOIL ZONE =        1515301.91              SOIL ZONE =          -1547.74
     UNSATURATED ZONE =       -2677707.03       UNSATURATED ZONE =         -13124.45
       SATURATED ZONE =         687028.89         SATURATED ZONE =           1123.43

 OVERALL BUDGET ERROR =          23379.98           BUDGET ERROR =              9.11


  PERCENT DISCREPANCY =              0.89    PERCENT DISCREPANCY =              0.07



1
 SUMMARY VOLUMETRIC BUDGET FOR GSFLOW 
 DATE: 01 27 1991              CUMULATIVE TIME STEP:      27
 MODFLOW STRESS PERIOD      5     CURRENT TIME STEP:     119     ITERATIONS:       5

 -----------------------------------------------------------------------------------

   CUMULATIVE VOLUMES               L**3   RATES FOR THIS TIME STEP           L**3/T
   ------------------                      ------------------------

                                     IN                                         IN
                                     --                                         --
        PRECIPITATION =        2596386.94          PRECIPITATION =                  
           STREAMFLOW =                               STREAMFLOW =                  
     GW BOUNDARY FLOW =              9.65       GW BOUNDARY FLOW =              0.48


                                    OUT                                        OUT
                                    ---                                        ---
   EVAPOTRANSPIRATION =        1483768.54     EVAPOTRANSPIRATION =           1239.77
           STREAMFLOW =        1243743.19             STREAMFLOW =          11925.32
     GW BOUNDARY FLOW =           4269.96       GW BOUNDARY FLOW =             35.74

   INFLOWS - OUTFLOWS =        -135385.09     INFLOWS - OUTFLOWS =         -13200.34
             --------                                   --------

 TOTAL STORAGE CHANGE =        -159026.92         STORAGE CHANGE =         -13200.33
       --------------                             --------------
         LAND SURFACE =         394226.40           LAND SURFACE =           -109.80
            SOIL ZONE =        1521909.90              SOIL ZONE =          -1027.05
     UNSATURATED ZONE =       -2767614.16       UNSATURATED ZONE =         -12624.01
       SATURATED ZONE =         692450.50         SATURATED ZONE =            560.53

 OVERALL BUDGET ERROR =          23641.82           BUDGET ERROR =             -0.02


  PERCENT DISCREPANCY =              0.86    PERCENT DISCREPANCY =             -0.00



1
 SUMMARY VOLUMETRIC BUDGET FOR GSFLOW 
 DATE: 02 03 1991              CUMULATIVE TIME STEP:       3
 MODFLOW STRESS PERIOD      6     CURRENT TIME STEP:     126     ITERATIONS:       6

 -----------------------------------------------------------------------------------

   CUMULATIVE VOLUMES               L**3   RATES FOR THIS TIME STEP           L**3/T
   ------------------                      ------------------------

                                     IN                                         IN
                                     --                                         --
        PRECIPITATION =        3228422.31          PRECIPITATION =          30459.53
           STREAMFLOW =                               STREAMFLOW =                  
     GW BOUNDARY FLOW =             13.31       GW BOUNDARY FLOW =              0.55


                                    OUT                                        OUT
                                    ---                                        ---
   EVAPOTRANSPIRATION =        1586129.03     EVAPOTRANSPIRATION =          20507.84
           STREAMFLOW =        1328565.92             STREAMFLOW =          12253.79
     GW BOUNDARY FLOW =           4520.05       GW BOUNDARY FLOW =             35.74

   INFLOWS - OUTFLOWS =         309220.62     INFLOWS - OUTFLOWS =          -2337.27
             --------                                   --------

 TOTAL STORAGE CHANGE =         278504.30         STORAGE CHANGE =          -2617.20
       --------------                             --------------
         LAND SURFACE =         184727.70           LAND SURFACE =         -28670.24
            SOIL ZONE =        2254727.78              SOIL ZONE =          38292.06
     UNSATURATED ZONE =       -2854320.95       UNSATURATED ZONE =         -12220.37
       SATURATED ZONE =         693369.25         SATURATED ZONE =            -18.67

 OVERALL BUDGET ERROR =          30716.32           BUDGET ERROR =            279.93


  PERCENT DISCREPANCY =              0.96    PERCENT DISCREPANCY =              0.85



1
 SUMMARY VOLUMETRIC BUDGET FOR GSFLOW 
 DATE: 02 10 1991              CUMULATIVE TIME STEP:      10
 MODFLOW STRESS PERIOD      6     CURRENT TIME STEP:     133     ITERATIONS:       5

 -----------------------------------------------------------------------------------

   CUMULATIVE VOLUMES               L**3   RATES FOR THIS TIME STEP           L**3/T
   ------------------                      ------------------------

                                     IN                                         IN
                                     --                                         --
        PRECIPITATION =        3510173.01          PRECIPITATION =                  
           STREAMFLOW =                               STREAMFLOW =                  
     GW BOUNDARY FLOW =             17.49       GW BOUNDARY FLOW =              0.63


                                    OUT                                        OUT
                                    ---                                        ---
   EVAPOTRANSPIRATION =        1753008.80     EVAPOTRANSPIRATION =          25852.40
           STREAMFLOW =        1414677.30             STREAMFLOW =          12179.72
     GW BOUNDARY FLOW =           4770.14       GW BOUNDARY FLOW =             35.72

   INFLOWS - OUTFLOWS =         337734.26     INFLOWS - OUTFLOWS =         -38067.22
             --------                                   --------

 TOTAL STORAGE CHANGE =         303997.66         STORAGE CHANGE =         -38024.93
       --------------                             --------------
         LAND SURFACE =          90050.80           LAND SURFACE =         -12330.62
            SOIL ZONE =        2460159.06              SOIL ZONE =         -13447.44
     UNSATURATED ZONE =       -2937557.28       UNSATURATED ZONE =         -11712.42
       SATURATED ZONE =         691344.49         SATURATED ZONE =           -534.47

 OVERALL BUDGET ERROR =          33736.59           BUDGET ERROR =            -42.29


  PERCENT DISCREPANCY =              0.97    PERCENT DISCREPANCY =             -0.11



1
 SUMMARY VOLUMETRIC BUDGET FOR GSFLOW 
 DATE: 02 17 1991              CUMULATIVE TIME STEP:      17
 MODFLOW STRESS PERIOD      6     CURRENT TIME STEP:     140     ITERATIONS:       5

 -----------------------------------------------------------------------------------

   CUMULATIVE VOLUMES               L**3   RATES FOR THIS TIME STEP           L**3/T
   ------------------                      ------------------------

                                     IN                                         IN
                                     --                                         --
        PRECIPITATION =        3510173.01          PRECIPITATION =                  
           STREAMFLOW =                               STREAMFLOW =                  
     GW BOUNDARY FLOW =             22.16       GW BOUNDARY FLOW =              0.70


                                    OUT                                        OUT
                                    ---                                        ---
   EVAPOTRANSPIRATION =        1996500.04     EVAPOTRANSPIRATION =          23256.88
           STREAMFLOW =        1499528.37             STREAMFLOW =          12116.74
     GW BOUNDARY FLOW =           5020.08       GW BOUNDARY FLOW =             35.68

   INFLOWS - OUTFLOWS =           9146.69     INFLOWS - OUTFLOWS =         -35408.60
             --------                                   --------

 TOTAL STORAGE CHANGE =         -23989.61         STORAGE CHANGE =         -35332.80
       --------------                             --------------
         LAND SURFACE =          18163.74           LAND SURFACE =          -1654.25
            SOIL ZONE =        2289595.28              SOIL ZONE =         -21557.42
     UNSATURATED ZONE =       -3017197.46       UNSATURATED ZONE =         -11068.42
       SATURATED ZONE =         685448.15         SATURATED ZONE =          -1052.71

 OVERALL BUDGET ERROR =          33136.30           BUDGET ERROR =            -75.80


  PERCENT DISCREPANCY =              0.94    PERCENT DISCREPANCY =             -0.21



1
 SUMMARY VOLUMETRIC BUDGET FOR GSFLOW 
 DATE: 02 24 1991              CUMULATIVE TIME STEP:      24
 MODFLOW STRESS PERIOD      6     CURRENT TIME STEP:     147     ITERATIONS:       5

 -----------------------------------------------------------------------------------

   CUMULATIVE VOLUMES               L**3   RATES FOR THIS TIME STEP           L**3/T
   ------------------                      ------------------------

                                     IN                                         IN
                                     --                                         --
        PRECIPITATION =        3510173.01          PRECIPITATION =                  
           STREAMFLOW =                               STREAMFLOW =                  
     GW BOUNDARY FLOW =             27.31       GW BOUNDARY FLOW =              0.76


                                    OUT                                        OUT
                                    ---                                        ---
   EVAPOTRANSPIRATION =        2212662.04     EVAPOTRANSPIRATION =          21963.26
           STREAMFLOW =        1583658.86             STREAMFLOW =          11977.27
     GW BOUNDARY FLOW =           5269.00       GW BOUNDARY FLOW =             35.48

   INFLOWS - OUTFLOWS =        -291389.59     INFLOWS - OUTFLOWS =         -33975.25
             --------                                   --------

 TOTAL STORAGE CHANGE =        -323824.02         STORAGE CHANGE =         -33901.12
       --------------                             --------------
         LAND SURFACE =           6686.42           LAND SURFACE =           -239.07
            SOIL ZONE =        2086708.15              SOIL ZONE =         -21384.10
     UNSATURATED ZONE =       -3093024.16       UNSATURATED ZONE =         -10666.27
       SATURATED ZONE =         675804.81         SATURATED ZONE =          -1611.69

 OVERALL BUDGET ERROR =          32434.43           BUDGET ERROR =            -74.13


  PERCENT DISCREPANCY =              0.85    PERCENT DISCREPANCY =             -0.22



1
 SUMMARY VOLUMETRIC BUDGET FOR GSFLOW 
 DATE: 03 03 1991              CUMULATIVE TIME STEP:       3
 MODFLOW STRESS PERIOD      7     CURRENT TIME STEP:     154     ITERATIONS:       5

 -----------------------------------------------------------------------------------

   CUMULATIVE VOLUMES               L**3   RATES FOR THIS TIME STEP           L**3/T
   ------------------                      ------------------------

                                     IN                                         IN
                                     --                                         --
        PRECIPITATION =        6220189.63          PRECIPITATION =        1243187.24
           STREAMFLOW =                               STREAMFLOW =                  
     GW BOUNDARY FLOW =             32.91       GW BOUNDARY FLOW =              0.83


                                    OUT                                        OUT
                                    ---                                        ---
   EVAPOTRANSPIRATION =        2364841.73     EVAPOTRANSPIRATION =           8003.02
           STREAMFLOW =        1667234.59             STREAMFLOW =          12232.13
     GW BOUNDARY FLOW =           5516.70       GW BOUNDARY FLOW =             35.33

   INFLOWS - OUTFLOWS =        2182629.53     INFLOWS - OUTFLOWS =        1222917.59
             --------                                   --------

 TOTAL STORAGE CHANGE =        2143923.08         STORAGE CHANGE =        1216195.68
       --------------                             --------------
         LAND SURFACE =        2505904.36           LAND SURFACE =        1046748.89
            SOIL ZONE =        2143127.94              SOIL ZONE =         182127.37
     UNSATURATED ZONE =       -3165914.90       UNSATURATED ZONE =         -10284.79
       SATURATED ZONE =         660804.82         SATURATED ZONE =          -2395.80

 OVERALL BUDGET ERROR =          38706.45           BUDGET ERROR =           6721.91


  PERCENT DISCREPANCY =              0.62    PERCENT DISCREPANCY =              0.54



1
 SUMMARY VOLUMETRIC BUDGET FOR GSFLOW 
 DATE: 03 10 1991              CUMULATIVE TIME STEP:      10
 MODFLOW STRESS PERIOD      7     CURRENT TIME STEP:     161     ITERATIONS:       5

 -----------------------------------------------------------------------------------

   CUMULATIVE VOLUMES               L**3   RATES FOR THIS TIME STEP           L**3/T
   ------------------                      ------------------------

                                     IN                                         IN
                                     --                                         --
        PRECIPITATION =        8746030.42          PRECIPITATION =          32888.55
           STREAMFLOW =                               STREAMFLOW =                  
     GW BOUNDARY FLOW =             38.95       GW BOUNDARY FLOW =              0.89


                                    OUT                                        OUT
                                    ---                                        ---
   EVAPOTRANSPIRATION =        2423974.16     EVAPOTRANSPIRATION =           8408.63
           STREAMFLOW =        1801640.41             STREAMFLOW =          18230.19
     GW BOUNDARY FLOW =           5764.76       GW BOUNDARY FLOW =             35.36

   INFLOWS - OUTFLOWS =        4514690.04     INFLOWS - OUTFLOWS =           6215.26
             --------                                   --------

 TOTAL STORAGE CHANGE =        4443549.63         STORAGE CHANGE =           5203.69
       --------------                             --------------
         LAND SURFACE =        3082070.49           LAND SURFACE =            535.10
            SOIL ZONE =        3917273.46              SOIL ZONE =          11284.34
     UNSATURATED ZONE =       -3208563.82       UNSATURATED ZONE =          -5230.11
       SATURATED ZONE =         652768.45         SATURATED ZONE =          -1385.67

 OVERALL BUDGET ERROR =          71140.41           BUDGET ERROR =           1011.57

  ***WARNING, FLUX RATES OFF > 3%

  PERCENT DISCREPANCY =              0.82    PERCENT DISCREPANCY =              3.12



1
 SUMMARY VOLUMETRIC BUDGET FOR GSFLOW 
 DATE: 03 17 1991              CUMULATIVE TIME STEP:      17
 MODFLOW STRESS PERIOD      7     CURRENT TIME STEP:     168     ITERATIONS:       5

 -----------------------------------------------------------------------------------

   CUMULATIVE VOLUMES               L**3   RATES FOR THIS TIME STEP           L**3/T
   ------------------                      ------------------------

                                     IN                                         IN
                                     --                                         --
        PRECIPITATION =        9897129.71          PRECIPITATION =         157865.04
           STREAMFLOW =                               STREAMFLOW =                  
     GW BOUNDARY FLOW =             45.40       GW BOUNDARY FLOW =              0.95


                                    OUT                                        OUT
                                    ---                                        ---
   EVAPOTRANSPIRATION =        2449650.64     EVAPOTRANSPIRATION =           7593.05
           STREAMFLOW =        1921526.68             STREAMFLOW =          16661.75
     GW BOUNDARY FLOW =           6011.55       GW BOUNDARY FLOW =             35.18

   INFLOWS - OUTFLOWS =        5519986.24     INFLOWS - OUTFLOWS =         133576.02
             --------                                   --------

 TOTAL STORAGE CHANGE =        5448717.82         STORAGE CHANGE =         133611.96
       --------------                             --------------
         LAND SURFACE =        4232943.09           LAND SURFACE =         157846.09
            SOIL ZONE =        3823751.41              SOIL ZONE =         -16349.99
     UNSATURATED ZONE =       -3246947.01       UNSATURATED ZONE =          -5618.69
       SATURATED ZONE =         638969.07         SATURATED ZONE =          -2265.47

 OVERALL BUDGET ERROR =          71268.42           BUDGET ERROR =            -35.94


  PERCENT DISCREPANCY =              0.72    PERCENT DISCREPANCY =             -0.02



1
 SUMMARY VOLUMETRIC BUDGET FOR GSFLOW 
 DATE: 03 24 1991              CUMULATIVE TIME STEP:      24
 MODFLOW STRESS PERIOD      7     CURRENT TIME STEP:     175     ITERATIONS:       5

 -----------------------------------------------------------------------------------

   CUMULATIVE VOLUMES               L**3   RATES FOR THIS TIME STEP           L**3/T
   ------------------                      ------------------------

                                     IN                                         IN
                                     --                                         --
        PRECIPITATION =        1.1673D+07          PRECIPITATION =        1230031.83
           STREAMFLOW =                               STREAMFLOW =                  
     GW BOUNDARY FLOW =             52.26       GW BOUNDARY FLOW =              1.00


                                    OUT                                        OUT
                                    ---                                        ---
   EVAPOTRANSPIRATION =        2485231.25     EVAPOTRANSPIRATION =           4146.88
           STREAMFLOW =        2034853.02             STREAMFLOW =          15926.45
     GW BOUNDARY FLOW =           6257.16       GW BOUNDARY FLOW =             35.02

   INFLOWS - OUTFLOWS =        7146822.34     INFLOWS - OUTFLOWS =        1209924.49
             --------                                   --------

 TOTAL STORAGE CHANGE =        7075445.42         STORAGE CHANGE =        1210024.93
       --------------                             --------------
         LAND SURFACE =        6001644.06           LAND SURFACE =        1230031.83
            SOIL ZONE =        3740762.70              SOIL ZONE =         -11212.03
     UNSATURATED ZONE =       -3288019.96       UNSATURATED ZONE =          -6037.48
       SATURATED ZONE =         621057.16         SATURATED ZONE =          -2757.42

 OVERALL BUDGET ERROR =          71376.92           BUDGET ERROR =           -100.44


  PERCENT DISCREPANCY =              0.61    PERCENT DISCREPANCY =             -0.01



1
 SUMMARY VOLUMETRIC BUDGET FOR GSFLOW 
 DATE: 03 31 1991              CUMULATIVE TIME STEP:      31
 MODFLOW STRESS PERIOD      7     CURRENT TIME STEP:     182     ITERATIONS:       6

 -----------------------------------------------------------------------------------

   CUMULATIVE VOLUMES               L**3   RATES FOR THIS TIME STEP           L**3/T
   ------------------                      ------------------------

                                     IN                                         IN
                                     --                                         --
        PRECIPITATION =        1.2495D+07          PRECIPITATION =                  
           STREAMFLOW =                               STREAMFLOW =                  
     GW BOUNDARY FLOW =             59.52       GW BOUNDARY FLOW =              1.06


                                    OUT                                        OUT
                                    ---                                        ---
   EVAPOTRANSPIRATION =        2593522.55     EVAPOTRANSPIRATION =          44703.21
           STREAMFLOW =        2147825.27             STREAMFLOW =          17913.96
     GW BOUNDARY FLOW =           6501.79       GW BOUNDARY FLOW =             34.93

   INFLOWS - OUTFLOWS =        7747535.20     INFLOWS - OUTFLOWS =         -62651.05
             --------                                   --------

 TOTAL STORAGE CHANGE =        7671907.68         STORAGE CHANGE =         -65667.66
       --------------                             --------------
         LAND SURFACE =        6627859.43           LAND SURFACE =        -109529.99
            SOIL ZONE =        3773082.27              SOIL ZONE =          51957.94
     UNSATURATED ZONE =       -3329397.02       UNSATURATED ZONE =          -5177.23
       SATURATED ZONE =         600361.33         SATURATED ZONE =          -2918.41

 OVERALL BUDGET ERROR =          75627.52           BUDGET ERROR =           3016.61

  ***WARNING, FLUX RATES OFF > 3%

  PERCENT DISCREPANCY =              0.61    PERCENT DISCREPANCY =              4.70



1
 SUMMARY VOLUMETRIC BUDGET FOR GSFLOW 
 DATE: 04 07 1991              CUMULATIVE TIME STEP:       7
 MODFLOW STRESS PERIOD      8     CURRENT TIME STEP:     189     ITERATIONS:       7

 -----------------------------------------------------------------------------------

   CUMULATIVE VOLUMES               L**3   RATES FOR THIS TIME STEP           L**3/T
   ------------------                      ------------------------

                                     IN                                         IN
                                     --                                         --
        PRECIPITATION =        1.3018D+07          PRECIPITATION =                  
           STREAMFLOW =                               STREAMFLOW =                  
     GW BOUNDARY FLOW =             67.15       GW BOUNDARY FLOW =              1.11


                                    OUT                                        OUT
                                    ---                                        ---
   EVAPOTRANSPIRATION =        2880829.79     EVAPOTRANSPIRATION =          13551.18
           STREAMFLOW =        2395859.16             STREAMFLOW =          49988.67
     GW BOUNDARY FLOW =           6748.11       GW BOUNDARY FLOW =             35.41

   INFLOWS - OUTFLOWS =        7734366.83     INFLOWS - OUTFLOWS =         -63574.16
             --------                                   --------

 TOTAL STORAGE CHANGE =        7625178.27         STORAGE CHANGE =         -64187.02
       --------------                             --------------
         LAND SURFACE =        5127084.68           LAND SURFACE =         -59307.30
            SOIL ZONE =        5243400.90              SOIL ZONE =          -8540.70
     UNSATURATED ZONE =       -3327496.67       UNSATURATED ZONE =           6100.53
       SATURATED ZONE =         582187.43         SATURATED ZONE =          -2439.59

 OVERALL BUDGET ERROR =         109188.55           BUDGET ERROR =            612.86


  PERCENT DISCREPANCY =              0.84    PERCENT DISCREPANCY =              0.96



1
 SUMMARY VOLUMETRIC BUDGET FOR GSFLOW 
 DATE: 04 14 1991              CUMULATIVE TIME STEP:      14
 MODFLOW STRESS PERIOD      8     CURRENT TIME STEP:     196     ITERATIONS:       6

 -----------------------------------------------------------------------------------

   CUMULATIVE VOLUMES               L**3   RATES FOR THIS TIME STEP           L**3/T
   ------------------                      ------------------------

                                     IN                                         IN
                                     --                                         --
        PRECIPITATION =        1.3018D+07          PRECIPITATION =                  
           STREAMFLOW =                               STREAMFLOW =                  
     GW BOUNDARY FLOW =             75.10       GW BOUNDARY FLOW =              1.16


                                    OUT                                        OUT
                                    ---                                        ---
   EVAPOTRANSPIRATION =        3050662.17     EVAPOTRANSPIRATION =          38933.13
           STREAMFLOW =        2790196.36             STREAMFLOW =          61482.04
     GW BOUNDARY FLOW =           6996.08       GW BOUNDARY FLOW =             35.44

   INFLOWS - OUTFLOWS =        7169957.24     INFLOWS - OUTFLOWS =        -100449.45
             --------                                   --------

 TOTAL STORAGE CHANGE =        7063351.82         STORAGE CHANGE =        -101325.63
       --------------                             --------------
         LAND SURFACE =        4519797.60           LAND SURFACE =        -171937.20
            SOIL ZONE =        5261220.78              SOIL ZONE =          66931.15
     UNSATURATED ZONE =       -3283638.41       UNSATURATED ZONE =           6080.50
       SATURATED ZONE =         565969.60         SATURATED ZONE =          -2400.12

 OVERALL BUDGET ERROR =         106605.42           BUDGET ERROR =            876.19


  PERCENT DISCREPANCY =              0.82    PERCENT DISCREPANCY =              0.87



1
 SUMMARY VOLUMETRIC BUDGET FOR GSFLOW 
 DATE: 04 21 1991              CUMULATIVE TIME STEP:      21
 MODFLOW STRESS PERIOD      8     CURRENT TIME STEP:     203     ITERATIONS:       7

 -----------------------------------------------------------------------------------

   CUMULATIVE VOLUMES               L**3   RATES FOR THIS TIME STEP           L**3/T
   ------------------                      ------------------------

                                     IN                                         IN
                                     --                                         --
        PRECIPITATION =        1.3034D+07          PRECIPITATION =                  
           STREAMFLOW =                               STREAMFLOW =                  
     GW BOUNDARY FLOW =             83.37       GW BOUNDARY FLOW =              1.20


                                    OUT                                        OUT
                                    ---                                        ---
   EVAPOTRANSPIRATION =        3282334.76     EVAPOTRANSPIRATION =          43439.42
           STREAMFLOW =        3282757.30             STREAMFLOW =          83472.48
     GW BOUNDARY FLOW =           7244.59       GW BOUNDARY FLOW =             35.63

   INFLOWS - OUTFLOWS =        6461808.81     INFLOWS - OUTFLOWS =        -126946.33
             --------                                   --------

 TOTAL STORAGE CHANGE =        6365080.53         STORAGE CHANGE =        -124704.53
       --------------                             --------------
         LAND SURFACE =        3417717.42           LAND SURFACE =        -214591.82
            SOIL ZONE =        5631569.40              SOIL ZONE =          83120.93
     UNSATURATED ZONE =       -3234522.90       UNSATURATED ZONE =           8839.38
       SATURATED ZONE =         550314.01         SATURATED ZONE =          -2073.08

 OVERALL BUDGET ERROR =          96728.29           BUDGET ERROR =          -2241.80


  PERCENT DISCREPANCY =              0.74    PERCENT DISCREPANCY =             -1.78



1
 SUMMARY VOLUMETRIC BUDGET FOR GSFLOW 
 DATE: 04 28 1991              CUMULATIVE TIME STEP:      28
 MODFLOW STRESS PERIOD      8     CURRENT TIME STEP:     210     ITERATIONS:       6

 -----------------------------------------------------------------------------------

   CUMULATIVE VOLUMES               L**3   RATES FOR THIS TIME STEP           L**3/T
   ------------------                      ------------------------

                                     IN                                         IN
                                     --                                         --
        PRECIPITATION =        1.3303D+07          PRECIPITATION =                  
           STREAMFLOW =                               STREAMFLOW =                  
     GW BOUNDARY FLOW =             91.91       GW BOUNDARY FLOW =              1.24


                                    OUT                                        OUT
                                    ---                                        ---
   EVAPOTRANSPIRATION =        3529185.65     EVAPOTRANSPIRATION =          55254.99
           STREAMFLOW =        3892055.40             STREAMFLOW =          84509.01
     GW BOUNDARY FLOW =           7493.86       GW BOUNDARY FLOW =             35.53

   INFLOWS - OUTFLOWS =        5874787.51     INFLOWS - OUTFLOWS =        -139798.29
             --------                                   --------

 TOTAL STORAGE CHANGE =        5816296.43         STORAGE CHANGE =        -133368.63
       --------------                             --------------
         LAND SURFACE =        2828492.52           LAND SURFACE =        -115203.82
            SOIL ZONE =        5621845.65              SOIL ZONE =         -24565.80
     UNSATURATED ZONE =       -3170837.24       UNSATURATED ZONE =           8353.27
       SATURATED ZONE =         536792.52         SATURATED ZONE =          -1952.34

 OVERALL BUDGET ERROR =          58491.08           BUDGET ERROR =          -6429.66

  ***WARNING, FLUX RATES OFF > 3%

  PERCENT DISCREPANCY =              0.44    PERCENT DISCREPANCY =             -4.71



1
 SUMMARY VOLUMETRIC BUDGET FOR GSFLOW 
 DATE: 05 05 1991              CUMULATIVE TIME STEP:       5
 MODFLOW STRESS PERIOD      9     CURRENT TIME STEP:     217     ITERATIONS:      10

 -----------------------------------------------------------------------------------

   CUMULATIVE VOLUMES               L**3   RATES FOR THIS TIME STEP           L**3/T
   ------------------                      ------------------------

                                     IN                                         IN
                                     --                                         --
        PRECIPITATION =        1.3510D+07          PRECIPITATION =                  
           STREAMFLOW =                               STREAMFLOW =                  
     GW BOUNDARY FLOW =            100.71       GW BOUNDARY FLOW =              1.27


                                    OUT                                        OUT
                                    ---                                        ---
   EVAPOTRANSPIRATION =        3878104.08     EVAPOTRANSPIRATION =          84776.04
           STREAMFLOW =        4447928.16             STREAMFLOW =          80846.55
     GW BOUNDARY FLOW =           7741.65       GW BOUNDARY FLOW =             35.35

   INFLOWS - OUTFLOWS =        5176034.95     INFLOWS - OUTFLOWS =        -165656.67
             --------                                   --------

 TOTAL STORAGE CHANGE =        5159550.88         STORAGE CHANGE =        -159818.38
       --------------                             --------------
         LAND SURFACE =        2164321.68           LAND SURFACE =        -169194.91
            SOIL ZONE =        5586580.80              SOIL ZONE =           2340.07
     UNSATURATED ZONE =       -3116629.88       UNSATURATED ZONE =           6789.97
       SATURATED ZONE =         525274.87         SATURATED ZONE =            246.44

 OVERALL BUDGET ERROR =          16484.07           BUDGET ERROR =          -5838.29

  ***WARNING, FLUX RATES OFF > 3%

  PERCENT DISCREPANCY =              0.12    PERCENT DISCREPANCY =             -3.59



1
 SUMMARY VOLUMETRIC BUDGET FOR GSFLOW 
 DATE: 05 12 1991              CUMULATIVE TIME STEP:      12
 MODFLOW STRESS PERIOD      9     CURRENT TIME STEP:     224     ITERATIONS:       6

 -----------------------------------------------------------------------------------

   CUMULATIVE VOLUMES               L**3   RATES FOR THIS TIME STEP           L**3/T
   ------------------                      ------------------------

                                     IN                                         IN
                                     --                                         --
        PRECIPITATION =        1.4029D+07          PRECIPITATION =                  
           STREAMFLOW =                               STREAMFLOW =                  
     GW BOUNDARY FLOW =            109.79       GW BOUNDARY FLOW =              1.31


                                    OUT                                        OUT
                                    ---                                        ---
   EVAPOTRANSPIRATION =        4247875.56     EVAPOTRANSPIRATION =          62578.29
           STREAMFLOW =        4997201.39             STREAMFLOW =          81208.01
     GW BOUNDARY FLOW =           7988.17       GW BOUNDARY FLOW =             35.17

   INFLOWS - OUTFLOWS =        4776266.83     INFLOWS - OUTFLOWS =        -143820.16
             --------                                   --------

 TOTAL STORAGE CHANGE =        4798986.24         STORAGE CHANGE =        -138603.22
       --------------                             --------------
         LAND SURFACE =        1719829.12           LAND SURFACE =        -195667.44
            SOIL ZONE =        5626717.83              SOIL ZONE =          51158.07
     UNSATURATED ZONE =       -3060087.51       UNSATURATED ZONE =           7785.56
       SATURATED ZONE =         512522.94         SATURATED ZONE =          -1879.47

 OVERALL BUDGET ERROR =         -22719.41           BUDGET ERROR =          -5216.94

  ***WARNING, FLUX RATES OFF > 3%

  PERCENT DISCREPANCY =             -0.16    PERCENT DISCREPANCY =             -3.69



1
 SUMMARY VOLUMETRIC BUDGET FOR GSFLOW 
 DATE: 05 19 1991              CUMULATIVE TIME STEP:      19
 MODFLOW STRESS PERIOD      9     CURRENT TIME STEP:     231     ITERATIONS:       9

 -----------------------------------------------------------------------------------

   CUMULATIVE VOLUMES               L**3   RATES FOR THIS TIME STEP           L**3/T
   ------------------                      ------------------------

                                     IN                                         IN
                                     --                                         --
        PRECIPITATION =        1.4365D+07          PRECIPITATION =                  
           STREAMFLOW =                               STREAMFLOW =                  
     GW BOUNDARY FLOW =            119.12       GW BOUNDARY FLOW =              1.35


                                    OUT                                        OUT
                                    ---                                        ---
   EVAPOTRANSPIRATION =        4647793.30     EVAPOTRANSPIRATION =          17977.42
           STREAMFLOW =        5543706.33             STREAMFLOW =          70827.00
     GW BOUNDARY FLOW =           8233.43       GW BOUNDARY FLOW =             34.87

   INFLOWS - OUTFLOWS =        4165764.37     INFLOWS - OUTFLOWS =         -88837.94
             --------                                   --------

 TOTAL STORAGE CHANGE =        4231137.78         STORAGE CHANGE =         -81944.98
       --------------                             --------------
         LAND SURFACE =        1168636.63           LAND SURFACE =         -21196.61
            SOIL ZONE =        5566844.98              SOIL ZONE =         -65617.48
     UNSATURATED ZONE =       -3005771.60       UNSATURATED ZONE =           6676.21
       SATURATED ZONE =         501423.42         SATURATED ZONE =          -1807.18

 OVERALL BUDGET ERROR =         -65373.40           BUDGET ERROR =          -6892.96

  ***WARNING, FLUX RATES OFF > 3%

  PERCENT DISCREPANCY =             -0.45    PERCENT DISCREPANCY =             -8.07



1
 SUMMARY VOLUMETRIC BUDGET FOR GSFLOW 
 DATE: 05 26 1991              CUMULATIVE TIME STEP:      26
 MODFLOW STRESS PERIOD      9     CURRENT TIME STEP:     238     ITERATIONS:       8

 -----------------------------------------------------------------------------------

   CUMULATIVE VOLUMES               L**3   RATES FOR THIS TIME STEP           L**3/T
   ------------------                      ------------------------

                                     IN                                         IN
                                     --                                         --
        PRECIPITATION =        1.4426D+07          PRECIPITATION =                  
           STREAMFLOW =                               STREAMFLOW =                  
     GW BOUNDARY FLOW =            128.73       GW BOUNDARY FLOW =              1.39


                                    OUT                                        OUT
                                    ---                                        ---
   EVAPOTRANSPIRATION =        5294822.27     EVAPOTRANSPIRATION =          71053.23
           STREAMFLOW =        5994237.94             STREAMFLOW =          52053.19
     GW BOUNDARY FLOW =           8476.22       GW BOUNDARY FLOW =             34.43

   INFLOWS - OUTFLOWS =        3129089.91     INFLOWS - OUTFLOWS =        -123139.47
             --------                                   --------

 TOTAL STORAGE CHANGE =        3234100.08         STORAGE CHANGE =        -118666.34
       --------------                             --------------
         LAND SURFACE =         620424.11           LAND SURFACE =         -40812.89
            SOIL ZONE =        5092785.33              SOIL ZONE =         -79145.43
     UNSATURATED ZONE =       -2966392.70       UNSATURATED ZONE =           3547.18
       SATURATED ZONE =         487278.47         SATURATED ZONE =          -2255.27

 OVERALL BUDGET ERROR =        -105010.16           BUDGET ERROR =          -4473.13

  ***WARNING, FLUX RATES OFF > 3%

  PERCENT DISCREPANCY =             -0.73    PERCENT DISCREPANCY =             -3.70



1
 SUMMARY VOLUMETRIC BUDGET FOR GSFLOW 
 DATE: 06 02 1991              CUMULATIVE TIME STEP:       2
 MODFLOW STRESS PERIOD     10     CURRENT TIME STEP:     245     ITERATIONS:       8

 -----------------------------------------------------------------------------------

   CUMULATIVE VOLUMES               L**3   RATES FOR THIS TIME STEP           L**3/T
   ------------------                      ------------------------

                                     IN                                         IN
                                     --                                         --
        PRECIPITATION =        1.4671D+07          PRECIPITATION =                  
           STREAMFLOW =                               STREAMFLOW =                  
     GW BOUNDARY FLOW =            138.61       GW BOUNDARY FLOW =              1.43


                                    OUT                                        OUT
                                    ---                                        ---
   EVAPOTRANSPIRATION =        5839504.76     EVAPOTRANSPIRATION =         119332.66
           STREAMFLOW =        6323019.24             STREAMFLOW =          43199.34
     GW BOUNDARY FLOW =           8716.06       GW BOUNDARY FLOW =             34.14

   INFLOWS - OUTFLOWS =        2499873.34     INFLOWS - OUTFLOWS =        -162564.70
             --------                                   --------

 TOTAL STORAGE CHANGE =        2628022.93         STORAGE CHANGE =        -158846.15
       --------------                             --------------
         LAND SURFACE =         358942.21           LAND SURFACE =         -46420.51
            SOIL ZONE =        4750270.51              SOIL ZONE =        -111359.18
     UNSATURATED ZONE =       -2952083.68       UNSATURATED ZONE =           1419.89
       SATURATED ZONE =         470888.47         SATURATED ZONE =          -2486.44

 OVERALL BUDGET ERROR =        -128149.58           BUDGET ERROR =          -3718.55


  PERCENT DISCREPANCY =             -0.87    PERCENT DISCREPANCY =             -2.31



1
 SUMMARY VOLUMETRIC BUDGET FOR GSFLOW 
 DATE: 06 09 1991              CUMULATIVE TIME STEP:       9
 MODFLOW STRESS PERIOD     10     CURRENT TIME STEP:     252     ITERATIONS:       7

 -----------------------------------------------------------------------------------

   CUMULATIVE VOLUMES               L**3   RATES FOR THIS TIME STEP           L**3/T
   ------------------                      ------------------------

                                     IN                                         IN
                                     --                                         --
        PRECIPITATION =        1.4671D+07          PRECIPITATION =                  
           STREAMFLOW =                               STREAMFLOW =                  
     GW BOUNDARY FLOW =            148.77       GW BOUNDARY FLOW =              1.47


                                    OUT                                        OUT
                                    ---                                        ---
   EVAPOTRANSPIRATION =        6555500.69     EVAPOTRANSPIRATION =         166447.12
           STREAMFLOW =        6565081.09             STREAMFLOW =          29183.06
     GW BOUNDARY FLOW =           8953.37       GW BOUNDARY FLOW =             33.74

   INFLOWS - OUTFLOWS =        1541588.43     INFLOWS - OUTFLOWS =        -195662.45
             --------                                   --------

 TOTAL STORAGE CHANGE =        1686073.70         STORAGE CHANGE =        -193587.82
       --------------                             --------------
         LAND SURFACE =         151647.51           LAND SURFACE =         -33724.69
            SOIL ZONE =        4040395.35              SOIL ZONE =        -154644.18
     UNSATURATED ZONE =       -2956474.40       UNSATURATED ZONE =          -1970.69
       SATURATED ZONE =         450499.25         SATURATED ZONE =          -3248.35

 OVERALL BUDGET ERROR =        -144485.27           BUDGET ERROR =          -2074.63


  PERCENT DISCREPANCY =             -0.98    PERCENT DISCREPANCY =             -1.07



1
 SUMMARY VOLUMETRIC BUDGET FOR GSFLOW 
 DATE: 06 16 1991              CUMULATIVE TIME STEP:      16
 MODFLOW STRESS PERIOD     10     CURRENT TIME STEP:     259     ITERATIONS:       6

 -----------------------------------------------------------------------------------

   CUMULATIVE VOLUMES               L**3   RATES FOR THIS TIME STEP           L**3/T
   ------------------                      ------------------------

                                     IN                                         IN
                                     --                                         --
        PRECIPITATION =        1.4671D+07          PRECIPITATION =                  
           STREAMFLOW =                               STREAMFLOW =                  
     GW BOUNDARY FLOW =            159.23       GW BOUNDARY FLOW =              1.51


                                    OUT                                        OUT
                                    ---                                        ---
   EVAPOTRANSPIRATION =        7514701.32     EVAPOTRANSPIRATION =         108564.18
           STREAMFLOW =        6716323.58             STREAMFLOW =          18151.54
     GW BOUNDARY FLOW =           9186.71       GW BOUNDARY FLOW =             33.20

   INFLOWS - OUTFLOWS =         430922.43     INFLOWS - OUTFLOWS =        -126747.40
             --------                                   --------

 TOTAL STORAGE CHANGE =         584913.17         STORAGE CHANGE =        -125621.78
       --------------                             --------------
         LAND SURFACE =          42141.08           LAND SURFACE =          -7293.27
            SOIL ZONE =        3118449.58              SOIL ZONE =        -104351.45
     UNSATURATED ZONE =       -2998456.80       UNSATURATED ZONE =          -9338.85
       SATURATED ZONE =         422772.73         SATURATED ZONE =          -4638.30

 OVERALL BUDGET ERROR =        -153990.74           BUDGET ERROR =          -1125.62


  PERCENT DISCREPANCY =             -1.04    PERCENT DISCREPANCY =             -0.89



1
 SUMMARY VOLUMETRIC BUDGET FOR GSFLOW 
 DATE: 06 23 1991              CUMULATIVE TIME STEP:      23
 MODFLOW STRESS PERIOD     10     CURRENT TIME STEP:     266     ITERATIONS:       7

 -----------------------------------------------------------------------------------

   CUMULATIVE VOLUMES               L**3   RATES FOR THIS TIME STEP           L**3/T
   ------------------                      ------------------------

                                     IN                                         IN
                                     --                                         --
        PRECIPITATION =        1.4671D+07          PRECIPITATION =                  
           STREAMFLOW =                               STREAMFLOW =                  
     GW BOUNDARY FLOW =            170.00       GW BOUNDARY FLOW =              1.56


                                    OUT                                        OUT
                                    ---                                        ---
   EVAPOTRANSPIRATION =        7995873.42     EVAPOTRANSPIRATION =          34647.54
           STREAMFLOW =        6829057.22             STREAMFLOW =          15579.01
     GW BOUNDARY FLOW =           9418.22       GW BOUNDARY FLOW =             33.03

   INFLOWS - OUTFLOWS =        -163204.06     INFLOWS - OUTFLOWS =         -50258.02
             --------                                   --------

 TOTAL STORAGE CHANGE =          -3765.27         STORAGE CHANGE =         -49831.73
       --------------                             --------------
         LAND SURFACE =          16912.15           LAND SURFACE =          -1657.56
            SOIL ZONE =        2663369.63              SOIL ZONE =         -34129.95
     UNSATURATED ZONE =       -3069438.28       UNSATURATED ZONE =          -8587.50
       SATURATED ZONE =         385384.05         SATURATED ZONE =          -5456.79

 OVERALL BUDGET ERROR =        -159438.79           BUDGET ERROR =           -426.29


  PERCENT DISCREPANCY =             -1.08    PERCENT DISCREPANCY =             -0.85



1
 SUMMARY VOLUMETRIC BUDGET FOR GSFLOW 
 DATE: 06 30 1991              CUMULATIVE TIME STEP:      30
 MODFLOW STRESS PERIOD     10     CURRENT TIME STEP:     273     ITERATIONS:       8

 -----------------------------------------------------------------------------------

[...]
                                    ---                                        ---
   EVAPOTRANSPIRATION =        7.3683D+07     EVAPOTRANSPIRATION =          85402.32
           STREAMFLOW =        7.4163D+07             STREAMFLOW =          13595.20
     GW BOUNDARY FLOW =          51009.81       GW BOUNDARY FLOW =             24.37

   INFLOWS - OUTFLOWS =       -1.4383D+07     INFLOWS - OUTFLOWS =         -99018.55
             --------                                   --------

 TOTAL STORAGE CHANGE =       -1.0538D+07         STORAGE CHANGE =         -97786.61
       --------------                             --------------
         LAND SURFACE =         524381.77           LAND SURFACE =         -24592.44
            SOIL ZONE =        2172766.80              SOIL ZONE =         -59073.18
     UNSATURATED ZONE =          61228.59       UNSATURATED ZONE =          -9194.76
       SATURATED ZONE =       -1.3296D+07         SATURATED ZONE =          -4926.38

 OVERALL BUDGET ERROR =       -3845497.68           BUDGET ERROR =          -1231.95


  PERCENT DISCREPANCY =             -2.63    PERCENT DISCREPANCY =             -1.25



1
 SUMMARY VOLUMETRIC BUDGET FOR GSFLOW 
 DATE: 09 03 1995              CUMULATIVE TIME STEP:       3
 MODFLOW STRESS PERIOD     61     CURRENT TIME STEP:    1799     ITERATIONS:       6

 -----------------------------------------------------------------------------------

   CUMULATIVE VOLUMES               L**3   RATES FOR THIS TIME STEP           L**3/T
   ------------------                      ------------------------

                                     IN                                         IN
                                     --                                         --
        PRECIPITATION =        1.3351D+08          PRECIPITATION =                  
           STREAMFLOW =                               STREAMFLOW =                  
     GW BOUNDARY FLOW =           5617.09       GW BOUNDARY FLOW =              3.43


                                    OUT                                        OUT
                                    ---                                        ---
   EVAPOTRANSPIRATION =        7.4260D+07     EVAPOTRANSPIRATION =          77339.99
           STREAMFLOW =        7.4246D+07             STREAMFLOW =          10577.27
     GW BOUNDARY FLOW =          51179.77       GW BOUNDARY FLOW =             24.22

   INFLOWS - OUTFLOWS =       -1.5043D+07     INFLOWS - OUTFLOWS =         -87938.05
             --------                                   --------

 TOTAL STORAGE CHANGE =       -1.1191D+07         STORAGE CHANGE =         -87670.59
       --------------                             --------------
         LAND SURFACE =         372015.97           LAND SURFACE =         -19446.39
            SOIL ZONE =        1778852.93              SOIL ZONE =         -52243.74
     UNSATURATED ZONE =          -4010.01       UNSATURATED ZONE =          -9384.99
       SATURATED ZONE =       -1.3338D+07         SATURATED ZONE =          -6595.61

 OVERALL BUDGET ERROR =       -3851269.76           BUDGET ERROR =           -267.46


  PERCENT DISCREPANCY =             -2.63    PERCENT DISCREPANCY =             -0.30



1
 SUMMARY VOLUMETRIC BUDGET FOR GSFLOW 
 DATE: 09 10 1995              CUMULATIVE TIME STEP:      10
 MODFLOW STRESS PERIOD     61     CURRENT TIME STEP:    1806     ITERATIONS:       7

 -----------------------------------------------------------------------------------

   CUMULATIVE VOLUMES               L**3   RATES FOR THIS TIME STEP           L**3/T
   ------------------                      ------------------------

                                     IN                                         IN
                                     --                                         --
        PRECIPITATION =        1.3351D+08          PRECIPITATION =                  
           STREAMFLOW =                               STREAMFLOW =                  
     GW BOUNDARY FLOW =           5641.52       GW BOUNDARY FLOW =              3.53


                                    OUT                                        OUT
                                    ---                                        ---
   EVAPOTRANSPIRATION =        7.4695D+07     EVAPOTRANSPIRATION =          58235.78
           STREAMFLOW =        7.4316D+07             STREAMFLOW =           9508.96
     GW BOUNDARY FLOW =          51349.27       GW BOUNDARY FLOW =             24.19

   INFLOWS - OUTFLOWS =       -1.5549D+07     INFLOWS - OUTFLOWS =         -67765.39
             --------                                   --------

 TOTAL STORAGE CHANGE =       -1.1696D+07         STORAGE CHANGE =         -67537.38
       --------------                             --------------
         LAND SURFACE =         271470.12           LAND SURFACE =         -12572.77
            SOIL ZONE =        1481246.56              SOIL ZONE =         -39620.59
     UNSATURATED ZONE =         -66360.36       UNSATURATED ZONE =          -8761.63
       SATURATED ZONE =       -1.3382D+07         SATURATED ZONE =          -6582.53

 OVERALL BUDGET ERROR =       -3852932.29           BUDGET ERROR =           -228.01


  PERCENT DISCREPANCY =             -2.62    PERCENT DISCREPANCY =             -0.34



1
 SUMMARY VOLUMETRIC BUDGET FOR GSFLOW 
 DATE: 09 17 1995              CUMULATIVE TIME STEP:      17
 MODFLOW STRESS PERIOD     61     CURRENT TIME STEP:    1813     ITERATIONS:       7

 -----------------------------------------------------------------------------------

   CUMULATIVE VOLUMES               L**3   RATES FOR THIS TIME STEP           L**3/T
   ------------------                      ------------------------

                                     IN                                         IN
                                     --                                         --
        PRECIPITATION =        1.3351D+08          PRECIPITATION =                  
           STREAMFLOW =                               STREAMFLOW =                  
     GW BOUNDARY FLOW =           5666.61       GW BOUNDARY FLOW =              3.62


                                    OUT                                        OUT
                                    ---                                        ---
   EVAPOTRANSPIRATION =        7.5170D+07     EVAPOTRANSPIRATION =          54666.37
           STREAMFLOW =        7.4373D+07             STREAMFLOW =           7916.96
     GW BOUNDARY FLOW =          51517.77       GW BOUNDARY FLOW =             24.08

   INFLOWS - OUTFLOWS =       -1.6080D+07     INFLOWS - OUTFLOWS =         -62603.78
             --------                                   --------

 TOTAL STORAGE CHANGE =       -1.2225D+07         STORAGE CHANGE =         -62358.83
       --------------                             --------------
         LAND SURFACE =         180685.70           LAND SURFACE =          -9600.58
            SOIL ZONE =        1168470.48              SOIL ZONE =         -35848.40
     UNSATURATED ZONE =        -132282.43       UNSATURATED ZONE =          -9258.36
       SATURATED ZONE =       -1.3442D+07         SATURATED ZONE =          -7651.63

 OVERALL BUDGET ERROR =       -3854945.28           BUDGET ERROR =           -244.95


  PERCENT DISCREPANCY =             -2.61    PERCENT DISCREPANCY =             -0.39



1
 SUMMARY VOLUMETRIC BUDGET FOR GSFLOW 
 DATE: 09 24 1995              CUMULATIVE TIME STEP:      24
 MODFLOW STRESS PERIOD     61     CURRENT TIME STEP:    1820     ITERATIONS:       7

 -----------------------------------------------------------------------------------

   CUMULATIVE VOLUMES               L**3   RATES FOR THIS TIME STEP           L**3/T
   ------------------                      ------------------------

                                     IN                                         IN
                                     --                                         --
        PRECIPITATION =        1.3351D+08          PRECIPITATION =                  
           STREAMFLOW =                               STREAMFLOW =                  
     GW BOUNDARY FLOW =           5692.34       GW BOUNDARY FLOW =              3.71


                                    OUT                                        OUT
                                    ---                                        ---
   EVAPOTRANSPIRATION =        7.5509D+07     EVAPOTRANSPIRATION =          34985.77
           STREAMFLOW =        7.4427D+07             STREAMFLOW =           8136.98
     GW BOUNDARY FLOW =          51686.21       GW BOUNDARY FLOW =             24.10

   INFLOWS - OUTFLOWS =       -1.6473D+07     INFLOWS - OUTFLOWS =         -43143.14
             --------                                   --------

 TOTAL STORAGE CHANGE =       -1.2617D+07         STORAGE CHANGE =         -42948.05
       --------------                             --------------
         LAND SURFACE =         125692.08           LAND SURFACE =          -5511.04
            SOIL ZONE =         947531.38              SOIL ZONE =         -22525.51
     UNSATURATED ZONE =        -193125.42       UNSATURATED ZONE =          -8207.21
       SATURATED ZONE =       -1.3497D+07         SATURATED ZONE =          -6704.43

 OVERALL BUDGET ERROR =       -3856616.71           BUDGET ERROR =           -195.09


  PERCENT DISCREPANCY =             -2.60    PERCENT DISCREPANCY =             -0.45



1
 SUMMARY VOLUMETRIC BUDGET FOR GSFLOW 
 DATE: 10 01 1995              CUMULATIVE TIME STEP:       1
 MODFLOW STRESS PERIOD     62     CURRENT TIME STEP:    1827     ITERATIONS:       6

 -----------------------------------------------------------------------------------

   CUMULATIVE VOLUMES               L**3   RATES FOR THIS TIME STEP           L**3/T
   ------------------                      ------------------------

                                     IN                                         IN
                                     --                                         --
        PRECIPITATION =        1.3351D+08          PRECIPITATION =                  
           STREAMFLOW =                               STREAMFLOW =                  
     GW BOUNDARY FLOW =           5718.68       GW BOUNDARY FLOW =              3.80


                                    OUT                                        OUT
                                    ---                                        ---
   EVAPOTRANSPIRATION =        7.5648D+07     EVAPOTRANSPIRATION =          20809.05
           STREAMFLOW =        7.4489D+07             STREAMFLOW =           8801.59
     GW BOUNDARY FLOW =          51855.43       GW BOUNDARY FLOW =             24.18

   INFLOWS - OUTFLOWS =       -1.6674D+07     INFLOWS - OUTFLOWS =         -29631.02
             --------                                   --------

 TOTAL STORAGE CHANGE =       -1.2817D+07         STORAGE CHANGE =         -29494.42
       --------------                             --------------
         LAND SURFACE =         102504.93           LAND SURFACE =          -2862.19
            SOIL ZONE =         860770.58              SOIL ZONE =         -13432.69
     UNSATURATED ZONE =        -246320.42       UNSATURATED ZONE =          -7482.27
       SATURATED ZONE =       -1.3534D+07         SATURATED ZONE =          -5717.41

 OVERALL BUDGET ERROR =       -3857544.05           BUDGET ERROR =           -136.61


  PERCENT DISCREPANCY =             -2.60    PERCENT DISCREPANCY =             -0.46



1
 SUMMARY VOLUMETRIC BUDGET FOR GSFLOW 
 DATE: 10 08 1995              CUMULATIVE TIME STEP:       8
 MODFLOW STRESS PERIOD     62     CURRENT TIME STEP:    1834     ITERATIONS:       6

 -----------------------------------------------------------------------------------

   CUMULATIVE VOLUMES               L**3   RATES FOR THIS TIME STEP           L**3/T
   ------------------                      ------------------------

                                     IN                                         IN
                                     --                                         --
        PRECIPITATION =        1.3351D+08          PRECIPITATION =                  
           STREAMFLOW =                               STREAMFLOW =                  
     GW BOUNDARY FLOW =           5745.57       GW BOUNDARY FLOW =              3.87


                                    OUT                                        OUT
                                    ---                                        ---
   EVAPOTRANSPIRATION =        7.5809D+07     EVAPOTRANSPIRATION =          20195.14
           STREAMFLOW =        7.4548D+07             STREAMFLOW =           8492.77
     GW BOUNDARY FLOW =          52024.54       GW BOUNDARY FLOW =             24.17

   INFLOWS - OUTFLOWS =       -1.6895D+07     INFLOWS - OUTFLOWS =         -28708.20
             --------                                   --------

 TOTAL STORAGE CHANGE =       -1.3036D+07         STORAGE CHANGE =         -28567.08
       --------------                             --------------
         LAND SURFACE =          81951.52           LAND SURFACE =          -2502.54
            SOIL ZONE =         758251.35              SOIL ZONE =         -12526.22
     UNSATURATED ZONE =        -298267.14       UNSATURATED ZONE =          -7246.01
       SATURATED ZONE =       -1.3578D+07         SATURATED ZONE =          -6292.46

 OVERALL BUDGET ERROR =       -3858620.85           BUDGET ERROR =           -141.11


  PERCENT DISCREPANCY =             -2.60    PERCENT DISCREPANCY =             -0.49



1
 SUMMARY VOLUMETRIC BUDGET FOR GSFLOW 
 DATE: 10 15 1995              CUMULATIVE TIME STEP:      15
 MODFLOW STRESS PERIOD     62     CURRENT TIME STEP:    1841     ITERATIONS:       6

 -----------------------------------------------------------------------------------

   CUMULATIVE VOLUMES               L**3   RATES FOR THIS TIME STEP           L**3/T
   ------------------                      ------------------------

                                     IN                                         IN
                                     --                                         --
        PRECIPITATION =        1.3351D+08          PRECIPITATION =                  
           STREAMFLOW =                               STREAMFLOW =                  
     GW BOUNDARY FLOW =           5772.98       GW BOUNDARY FLOW =              3.95


                                    OUT                                        OUT
                                    ---                                        ---
   EVAPOTRANSPIRATION =        7.5967D+07     EVAPOTRANSPIRATION =          25368.55
           STREAMFLOW =        7.4605D+07             STREAMFLOW =           7869.35
     GW BOUNDARY FLOW =          52193.55       GW BOUNDARY FLOW =             24.13

   INFLOWS - OUTFLOWS =       -1.7111D+07     INFLOWS - OUTFLOWS =         -33258.08
             --------                                   --------

 TOTAL STORAGE CHANGE =       -1.3251D+07         STORAGE CHANGE =         -33076.09
       --------------                             --------------
         LAND SURFACE =          63226.18           LAND SURFACE =          -2687.15
            SOIL ZONE =         662249.77              SOIL ZONE =         -15215.15
     UNSATURATED ZONE =        -350107.13       UNSATURATED ZONE =          -7629.17
       SATURATED ZONE =       -1.3626D+07         SATURATED ZONE =          -7544.75

 OVERALL BUDGET ERROR =       -3859765.02           BUDGET ERROR =           -181.99


  PERCENT DISCREPANCY =             -2.60    PERCENT DISCREPANCY =             -0.55



1
 SUMMARY VOLUMETRIC BUDGET FOR GSFLOW 
 DATE: 10 22 1995              CUMULATIVE TIME STEP:      22
 MODFLOW STRESS PERIOD     62     CURRENT TIME STEP:    1848     ITERATIONS:       7

 -----------------------------------------------------------------------------------

   CUMULATIVE VOLUMES               L**3   RATES FOR THIS TIME STEP           L**3/T
   ------------------                      ------------------------

                                     IN                                         IN
                                     --                                         --
        PRECIPITATION =        1.3351D+08          PRECIPITATION =                  
           STREAMFLOW =                               STREAMFLOW =                  
     GW BOUNDARY FLOW =           5800.86       GW BOUNDARY FLOW =              4.01


                                    OUT                                        OUT
                                    ---                                        ---
   EVAPOTRANSPIRATION =        7.6110D+07     EVAPOTRANSPIRATION =           5923.15
           STREAMFLOW =        7.4661D+07             STREAMFLOW =           9031.78
     GW BOUNDARY FLOW =          52362.55       GW BOUNDARY FLOW =             24.23

   INFLOWS - OUTFLOWS =       -1.7309D+07     INFLOWS - OUTFLOWS =         -14975.15
             --------                                   --------

 TOTAL STORAGE CHANGE =       -1.3449D+07         STORAGE CHANGE =         -14881.89
       --------------                             --------------
         LAND SURFACE =          49141.37           LAND SURFACE =           -667.02
            SOIL ZONE =         578533.58              SOIL ZONE =          -3452.67
     UNSATURATED ZONE =        -400067.56       UNSATURATED ZONE =          -6287.60
       SATURATED ZONE =       -1.3676D+07         SATURATED ZONE =          -4474.74

 OVERALL BUDGET ERROR =       -3860961.48           BUDGET ERROR =            -93.26


  PERCENT DISCREPANCY =             -2.59    PERCENT DISCREPANCY =             -0.62



1
 SUMMARY VOLUMETRIC BUDGET FOR GSFLOW 
 DATE: 10 29 1995              CUMULATIVE TIME STEP:      29
 MODFLOW STRESS PERIOD     62     CURRENT TIME STEP:    1855     ITERATIONS:       5

 -----------------------------------------------------------------------------------

   CUMULATIVE VOLUMES               L**3   RATES FOR THIS TIME STEP           L**3/T
   ------------------                      ------------------------

                                     IN                                         IN
                                     --                                         --
        PRECIPITATION =        1.3351D+08          PRECIPITATION =                  
           STREAMFLOW =                               STREAMFLOW =                  
     GW BOUNDARY FLOW =           5829.17       GW BOUNDARY FLOW =              4.07


                                    OUT                                        OUT
                                    ---                                        ---
   EVAPOTRANSPIRATION =        7.6196D+07     EVAPOTRANSPIRATION =          15014.05
           STREAMFLOW =        7.4721D+07             STREAMFLOW =           8158.85
     GW BOUNDARY FLOW =          52531.93       GW BOUNDARY FLOW =             24.17

   INFLOWS - OUTFLOWS =       -1.7455D+07     INFLOWS - OUTFLOWS =         -23193.01
             --------                                   --------

 TOTAL STORAGE CHANGE =       -1.3593D+07         STORAGE CHANGE =         -23039.00
       --------------                             --------------
         LAND SURFACE =          42922.70           LAND SURFACE =          -1382.99
            SOIL ZONE =         528579.09              SOIL ZONE =          -8255.10
     UNSATURATED ZONE =        -445707.08       UNSATURATED ZONE =          -6512.17
       SATURATED ZONE =       -1.3719D+07         SATURATED ZONE =          -6888.88

 OVERALL BUDGET ERROR =       -3861956.25           BUDGET ERROR =           -154.01


  PERCENT DISCREPANCY =             -2.59    PERCENT DISCREPANCY =             -0.67



