1
 SUMMARY VOLUMETRIC BUDGET FOR GSFLOW 
 DATE: 10 07 1990              CUMULATIVE TIME STEP:       7
 MODFLOW STRESS PERIOD      2     CURRENT TIME STEP:       7     ITERATIONS:       7

 -----------------------------------------------------------------------------------

   CUMULATIVE VOLUMES               L**3   RATES FOR THIS TIME STEP           L**3/T
   ------------------                      ------------------------

                                     IN                                         IN
                                     --                                         --
        PRECIPITATION =                            PRECIPITATION =                  
           STREAMFLOW =                               STREAMFLOW =                  
     GW BOUNDARY FLOW =                         GW BOUNDARY FLOW =                  


                                    OUT                                        OUT
                                    ---                                        ---
   EVAPOTRANSPIRATION =         381274.28     EVAPOTRANSPIRATION =          12557.77
           STREAMFLOW =          45744.87             STREAMFLOW =           8124.52
     GW BOUNDARY FLOW =            252.78       GW BOUNDARY FLOW =             36.30

   INFLOWS - OUTFLOWS =        -427271.93     INFLOWS - OUTFLOWS =         -20718.60
             --------                                   --------

 TOTAL STORAGE CHANGE =        -425815.52         STORAGE CHANGE =         -20692.96
       --------------                             --------------
         LAND SURFACE =                             LAND SURFACE =                  
            SOIL ZONE =         -33207.91              SOIL ZONE =          -1003.49
     UNSATURATED ZONE =        -500150.39       UNSATURATED ZONE =         -34306.04
       SATURATED ZONE =         107542.78         SATURATED ZONE =          14616.57

 OVERALL BUDGET ERROR =          -1456.40           BUDGET ERROR =            -25.64


  PERCENT DISCREPANCY =             -0.34    PERCENT DISCREPANCY =             -0.12



1
 SUMMARY VOLUMETRIC BUDGET FOR GSFLOW 
 DATE: 10 14 1990              CUMULATIVE TIME STEP:      14
 MODFLOW STRESS PERIOD      2     CURRENT TIME STEP:      14     ITERATIONS:       6

 -----------------------------------------------------------------------------------

   CUMULATIVE VOLUMES               L**3   RATES FOR THIS TIME STEP           L**3/T
   ------------------                      ------------------------

                                     IN                                         IN
                                     --                                         --
        PRECIPITATION =                            PRECIPITATION =                  
           STREAMFLOW =                               STREAMFLOW =                  
     GW BOUNDARY FLOW =                         GW BOUNDARY FLOW =                  


                                    OUT                                        OUT
                                    ---                                        ---
   EVAPOTRANSPIRATION =         659616.65     EVAPOTRANSPIRATION =          42722.87
           STREAMFLOW =         100594.96             STREAMFLOW =           7421.50
     GW BOUNDARY FLOW =            506.62       GW BOUNDARY FLOW =             36.24

   INFLOWS - OUTFLOWS =        -760718.23     INFLOWS - OUTFLOWS =         -50180.61
             --------                                   --------

 TOTAL STORAGE CHANGE =        -759001.58         STORAGE CHANGE =         -50163.25
       --------------                             --------------
         LAND SURFACE =                             LAND SURFACE =                  
            SOIL ZONE =         -57924.68              SOIL ZONE =          -4415.36
     UNSATURATED ZONE =        -874272.48       UNSATURATED ZONE =         -52543.05
       SATURATED ZONE =         173195.58         SATURATED ZONE =           6795.15

 OVERALL BUDGET ERROR =          -1716.66           BUDGET ERROR =            -17.36


  PERCENT DISCREPANCY =             -0.23    PERCENT DISCREPANCY =             -0.03



1
 SUMMARY VOLUMETRIC BUDGET FOR GSFLOW 
 DATE: 10 21 1990              CUMULATIVE TIME STEP:      21
 MODFLOW STRESS PERIOD      2     CURRENT TIME STEP:      21     ITERATIONS:       6

 -----------------------------------------------------------------------------------

   CUMULATIVE VOLUMES               L**3   RATES FOR THIS TIME STEP           L**3/T
   ------------------                      ------------------------

                                     IN                                         IN
                                     --                                         --
        PRECIPITATION =         188432.87          PRECIPITATION =                  
           STREAMFLOW =                               STREAMFLOW =                  
     GW BOUNDARY FLOW =                         GW BOUNDARY FLOW =                  


                                    OUT                                        OUT
                                    ---                                        ---
   EVAPOTRANSPIRATION =         801978.18     EVAPOTRANSPIRATION =          37118.94
           STREAMFLOW =         163660.18             STREAMFLOW =          10145.99
     GW BOUNDARY FLOW =            760.81       GW BOUNDARY FLOW =             36.37

   INFLOWS - OUTFLOWS =        -777966.31     INFLOWS - OUTFLOWS =         -47301.30
             --------                                   --------

 TOTAL STORAGE CHANGE =        -777466.15         STORAGE CHANGE =         -47309.22
       --------------                             --------------
         LAND SURFACE =          15977.62           LAND SURFACE =         -34861.64
            SOIL ZONE =          55566.71              SOIL ZONE =          -1277.75
     UNSATURATED ZONE =       -1086176.97       UNSATURATED ZONE =         -21865.54
       SATURATED ZONE =         237166.49         SATURATED ZONE =          10695.71

 OVERALL BUDGET ERROR =           -500.16           BUDGET ERROR =              7.93


  PERCENT DISCREPANCY =             -0.05    PERCENT DISCREPANCY =              0.02



1
 SUMMARY VOLUMETRIC BUDGET FOR GSFLOW 
 DATE: 10 28 1990              CUMULATIVE TIME STEP:      28
 MODFLOW STRESS PERIOD      2     CURRENT TIME STEP:      28     ITERATIONS:       7

 -----------------------------------------------------------------------------------

   CUMULATIVE VOLUMES               L**3   RATES FOR THIS TIME STEP           L**3/T
   ------------------                      ------------------------

                                     IN                                         IN
                                     --                                         --
        PRECIPITATION =         188432.87          PRECIPITATION =                  
           STREAMFLOW =                               STREAMFLOW =                  
     GW BOUNDARY FLOW =                         GW BOUNDARY FLOW =                  


                                    OUT                                        OUT
                                    ---                                        ---
   EVAPOTRANSPIRATION =         927289.72     EVAPOTRANSPIRATION =          11164.47
           STREAMFLOW =         225331.90             STREAMFLOW =           8992.96
     GW BOUNDARY FLOW =           1014.01       GW BOUNDARY FLOW =             36.13

   INFLOWS - OUTFLOWS =        -965202.75     INFLOWS - OUTFLOWS =         -20193.56
             --------                                   --------

 TOTAL STORAGE CHANGE =        -964689.90         STORAGE CHANGE =         -20192.21
       --------------                             --------------
         LAND SURFACE =                             LAND SURFACE =                  
            SOIL ZONE =          26475.24              SOIL ZONE =          -3291.98
     UNSATURATED ZONE =       -1270423.87       UNSATURATED ZONE =         -23125.74
       SATURATED ZONE =         279258.73         SATURATED ZONE =           6225.51

 OVERALL BUDGET ERROR =           -512.86           BUDGET ERROR =             -1.35


  PERCENT DISCREPANCY =             -0.04    PERCENT DISCREPANCY =             -0.01



1
 SUMMARY VOLUMETRIC BUDGET FOR GSFLOW 
 DATE: 11 04 1990              CUMULATIVE TIME STEP:       4
 MODFLOW STRESS PERIOD      3     CURRENT TIME STEP:      35     ITERATIONS:       6

 -----------------------------------------------------------------------------------

   CUMULATIVE VOLUMES               L**3   RATES FOR THIS TIME STEP           L**3/T
   ------------------                      ------------------------

                                     IN                                         IN
                                     --                                         --
        PRECIPITATION =         703113.06          PRECIPITATION =                  
           STREAMFLOW =                               STREAMFLOW =                  
     GW BOUNDARY FLOW =                         GW BOUNDARY FLOW =                  


                                    OUT                                        OUT
                                    ---                                        ---
   EVAPOTRANSPIRATION =         986908.08     EVAPOTRANSPIRATION =          26063.10
           STREAMFLOW =         296511.12             STREAMFLOW =          10669.76
     GW BOUNDARY FLOW =           1267.07       GW BOUNDARY FLOW =             36.14

   INFLOWS - OUTFLOWS =        -581573.21     INFLOWS - OUTFLOWS =         -36768.99
             --------                                   --------

 TOTAL STORAGE CHANGE =        -585989.03         STORAGE CHANGE =         -38039.15
       --------------                             --------------
         LAND SURFACE =          71009.70           LAND SURFACE =         -84159.07
            SOIL ZONE =         418917.73              SOIL ZONE =          56784.38
     UNSATURATED ZONE =       -1415988.12       UNSATURATED ZONE =         -20062.44
       SATURATED ZONE =         340071.65         SATURATED ZONE =           9397.97

 OVERALL BUDGET ERROR =           4415.81           BUDGET ERROR =           1270.16

  ***WARNING, FLUX RATES OFF > 3%

  PERCENT DISCREPANCY =              0.34    PERCENT DISCREPANCY =              3.40



1
 SUMMARY VOLUMETRIC BUDGET FOR GSFLOW 
 DATE: 11 11 1990              CUMULATIVE TIME STEP:      11
 MODFLOW STRESS PERIOD      3     CURRENT TIME STEP:      42     ITERATIONS:       6

 -----------------------------------------------------------------------------------

   CUMULATIVE VOLUMES               L**3   RATES FOR THIS TIME STEP           L**3/T
   ------------------                      ------------------------

                                     IN                                         IN
                                     --                                         --
        PRECIPITATION =         703113.06          PRECIPITATION =                  
           STREAMFLOW =                               STREAMFLOW =                  
     GW BOUNDARY FLOW =                         GW BOUNDARY FLOW =                  


                                    OUT                                        OUT
                                    ---                                        ---
   EVAPOTRANSPIRATION =        1060217.75     EVAPOTRANSPIRATION =          12361.28
           STREAMFLOW =         367635.54             STREAMFLOW =           9650.00
     GW BOUNDARY FLOW =           1519.17       GW BOUNDARY FLOW =             35.92

   INFLOWS - OUTFLOWS =        -726259.40     INFLOWS - OUTFLOWS =         -22047.21
             --------                                   --------

 TOTAL STORAGE CHANGE =        -730855.10         STORAGE CHANGE =         -22046.07
       --------------                             --------------
         LAND SURFACE =            295.92           LAND SURFACE =           -859.89
            SOIL ZONE =         435211.67              SOIL ZONE =          -6117.58
     UNSATURATED ZONE =       -1555713.27       UNSATURATED ZONE =         -19962.75
       SATURATED ZONE =         389350.56         SATURATED ZONE =           4894.14

 OVERALL BUDGET ERROR =           4595.70           BUDGET ERROR =             -1.14


  PERCENT DISCREPANCY =              0.32    PERCENT DISCREPANCY =             -0.01



1
 SUMMARY VOLUMETRIC BUDGET FOR GSFLOW 
 DATE: 11 18 1990              CUMULATIVE TIME STEP:      18
 MODFLOW STRESS PERIOD      3     CURRENT TIME STEP:      49     ITERATIONS:       6

 -----------------------------------------------------------------------------------

   CUMULATIVE VOLUMES               L**3   RATES FOR THIS TIME STEP           L**3/T
   ------------------                      ------------------------

                                     IN                                         IN
                                     --                                         --
        PRECIPITATION =         747883.35          PRECIPITATION =                  
           STREAMFLOW =                               STREAMFLOW =                  
     GW BOUNDARY FLOW =                         GW BOUNDARY FLOW =                  


                                    OUT                                        OUT
                                    ---                                        ---
   EVAPOTRANSPIRATION =        1129666.89     EVAPOTRANSPIRATION =           5430.46
           STREAMFLOW =         439533.11             STREAMFLOW =          10703.21
     GW BOUNDARY FLOW =           1770.49       GW BOUNDARY FLOW =             35.88

   INFLOWS - OUTFLOWS =        -823087.14     INFLOWS - OUTFLOWS =         -16169.55
             --------                                   --------

 TOTAL STORAGE CHANGE =        -827721.15         STORAGE CHANGE =         -16180.93
       --------------                             --------------
         LAND SURFACE =          10077.61           LAND SURFACE =          -4199.79
            SOIL ZONE =         417312.79              SOIL ZONE =           -687.69
     UNSATURATED ZONE =       -1689197.94       UNSATURATED ZONE =         -18640.01
       SATURATED ZONE =         434086.35         SATURATED ZONE =           7346.55

 OVERALL BUDGET ERROR =           4634.01           BUDGET ERROR =             11.37


  PERCENT DISCREPANCY =              0.29    PERCENT DISCREPANCY =              0.07



1
 SUMMARY VOLUMETRIC BUDGET FOR GSFLOW 
 DATE: 11 25 1990              CUMULATIVE TIME STEP:      25
 MODFLOW STRESS PERIOD      3     CURRENT TIME STEP:      56     ITERATIONS:       6

 -----------------------------------------------------------------------------------

   CUMULATIVE VOLUMES               L**3   RATES FOR THIS TIME STEP           L**3/T
   ------------------                      ------------------------

                                     IN                                         IN
                                     --                                         --
        PRECIPITATION =        1009043.38          PRECIPITATION =         186542.88
           STREAMFLOW =                               STREAMFLOW =                  
     GW BOUNDARY FLOW =                         GW BOUNDARY FLOW =                  


                                    OUT                                        OUT
                                    ---                                        ---
   EVAPOTRANSPIRATION =        1190402.92     EVAPOTRANSPIRATION =           3817.96
           STREAMFLOW =         515661.47             STREAMFLOW =          10899.94
     GW BOUNDARY FLOW =           2021.44       GW BOUNDARY FLOW =             35.79

   INFLOWS - OUTFLOWS =        -699042.45     INFLOWS - OUTFLOWS =         171789.18
             --------                                   --------

 TOTAL STORAGE CHANGE =        -705822.28         STORAGE CHANGE =         169936.78
       --------------                             --------------
         LAND SURFACE =          92124.67           LAND SURFACE =          75233.82
            SOIL ZONE =         535310.89              SOIL ZONE =         106282.77
     UNSATURATED ZONE =       -1816865.22       UNSATURATED ZONE =         -17923.87
       SATURATED ZONE =         483607.31         SATURATED ZONE =           6344.06

 OVERALL BUDGET ERROR =           6779.83           BUDGET ERROR =           1852.40


  PERCENT DISCREPANCY =              0.40    PERCENT DISCREPANCY =              1.00



1
 SUMMARY VOLUMETRIC BUDGET FOR GSFLOW 
 DATE: 12 02 1990              CUMULATIVE TIME STEP:       2
 MODFLOW STRESS PERIOD      4     CURRENT TIME STEP:      63     ITERATIONS:       6

 -----------------------------------------------------------------------------------

   CUMULATIVE VOLUMES               L**3   RATES FOR THIS TIME STEP           L**3/T
   ------------------                      ------------------------

                                     IN                                         IN
                                     --                                         --
        PRECIPITATION =        1449284.55          PRECIPITATION =                  
           STREAMFLOW =                               STREAMFLOW =                  
     GW BOUNDARY FLOW =                         GW BOUNDARY FLOW =                  


                                    OUT                                        OUT
                                    ---                                        ---
   EVAPOTRANSPIRATION =        1197971.98     EVAPOTRANSPIRATION =            374.89
           STREAMFLOW =         593029.17             STREAMFLOW =          11092.19
     GW BOUNDARY FLOW =           2271.93       GW BOUNDARY FLOW =             35.77

   INFLOWS - OUTFLOWS =        -343988.53     INFLOWS - OUTFLOWS =         -11502.85
             --------                                   --------

 TOTAL STORAGE CHANGE =        -351882.53         STORAGE CHANGE =         -11515.56
       --------------                             --------------
         LAND SURFACE =         493448.43           LAND SURFACE =           -453.37
            SOIL ZONE =         565885.32              SOIL ZONE =            120.80
     UNSATURATED ZONE =       -1939764.01       UNSATURATED ZONE =         -17264.08
       SATURATED ZONE =         528547.65         SATURATED ZONE =           6081.08

 OVERALL BUDGET ERROR =           7894.00           BUDGET ERROR =             12.71


  PERCENT DISCREPANCY =              0.44    PERCENT DISCREPANCY =              0.11



1
 SUMMARY VOLUMETRIC BUDGET FOR GSFLOW 
 DATE: 12 09 1990              CUMULATIVE TIME STEP:       9
 MODFLOW STRESS PERIOD      4     CURRENT TIME STEP:      70     ITERATIONS:       6

 -----------------------------------------------------------------------------------

   CUMULATIVE VOLUMES               L**3   RATES FOR THIS TIME STEP           L**3/T
   ------------------                      ------------------------

                                     IN                                         IN
                                     --                                         --
        PRECIPITATION =        1449284.55          PRECIPITATION =                  
           STREAMFLOW =                               STREAMFLOW =                  
     GW BOUNDARY FLOW =                         GW BOUNDARY FLOW =                  


                                    OUT                                        OUT
                                    ---                                        ---
   EVAPOTRANSPIRATION =        1276460.67     EVAPOTRANSPIRATION =          14145.54
           STREAMFLOW =         670835.86             STREAMFLOW =          10906.27
     GW BOUNDARY FLOW =           2521.89       GW BOUNDARY FLOW =             35.65

   INFLOWS - OUTFLOWS =        -500533.87     INFLOWS - OUTFLOWS =         -25087.46
             --------                                   --------

 TOTAL STORAGE CHANGE =        -512895.80         STORAGE CHANGE =         -25208.78
       --------------                             --------------
         LAND SURFACE =          66382.66           LAND SURFACE =         -46525.53
            SOIL ZONE =         913442.93              SOIL ZONE =          33964.26
     UNSATURATED ZONE =       -2057614.27       UNSATURATED ZONE =         -16498.16
       SATURATED ZONE =         564892.76         SATURATED ZONE =           3850.65

 OVERALL BUDGET ERROR =          12361.92           BUDGET ERROR =            121.32


  PERCENT DISCREPANCY =              0.63    PERCENT DISCREPANCY =              0.48



1
 SUMMARY VOLUMETRIC BUDGET FOR GSFLOW 
 DATE: 12 16 1990              CUMULATIVE TIME STEP:      16
 MODFLOW STRESS PERIOD      4     CURRENT TIME STEP:      77     ITERATIONS:       6

 -----------------------------------------------------------------------------------

   CUMULATIVE VOLUMES               L**3   RATES FOR THIS TIME STEP           L**3/T
   ------------------                      ------------------------

                                     IN                                         IN
                                     --                                         --
        PRECIPITATION =        1804962.84          PRECIPITATION =                  
           STREAMFLOW =                               STREAMFLOW =                  
     GW BOUNDARY FLOW =                         GW BOUNDARY FLOW =                  


                                    OUT                                        OUT
                                    ---                                        ---
   EVAPOTRANSPIRATION =        1305054.80     EVAPOTRANSPIRATION =                  
           STREAMFLOW =         750625.90             STREAMFLOW =          11534.55
     GW BOUNDARY FLOW =           2771.30       GW BOUNDARY FLOW =             35.61

   INFLOWS - OUTFLOWS =        -253489.17     INFLOWS - OUTFLOWS =         -11570.16
             --------                                   --------

 TOTAL STORAGE CHANGE =        -268146.65         STORAGE CHANGE =         -11585.87
       --------------                             --------------
         LAND SURFACE =         256077.36           LAND SURFACE =                  
            SOIL ZONE =        1051280.52              SOIL ZONE =            -28.18
     UNSATURATED ZONE =       -2171016.08       UNSATURATED ZONE =         -15950.38
       SATURATED ZONE =         595511.40         SATURATED ZONE =           4392.68

 OVERALL BUDGET ERROR =          14657.49           BUDGET ERROR =             15.71


  PERCENT DISCREPANCY =              0.71    PERCENT DISCREPANCY =              0.14



1
 SUMMARY VOLUMETRIC BUDGET FOR GSFLOW 
 DATE: 12 23 1990              CUMULATIVE TIME STEP:      23
 MODFLOW STRESS PERIOD      4     CURRENT TIME STEP:      84     ITERATIONS:       6

 -----------------------------------------------------------------------------------

   CUMULATIVE VOLUMES               L**3   RATES FOR THIS TIME STEP           L**3/T
   ------------------                      ------------------------

                                     IN                                         IN
                                     --                                         --
        PRECIPITATION =        2276236.55          PRECIPITATION =                  
           STREAMFLOW =                               STREAMFLOW =                  
     GW BOUNDARY FLOW =              0.08       GW BOUNDARY FLOW =              0.04


                                    OUT                                        OUT
                                    ---                                        ---
   EVAPOTRANSPIRATION =        1306429.45     EVAPOTRANSPIRATION =                  
           STREAMFLOW =         831567.74             STREAMFLOW =          11584.84
     GW BOUNDARY FLOW =           3020.34       GW BOUNDARY FLOW =             35.57

   INFLOWS - OUTFLOWS =         135219.10     INFLOWS - OUTFLOWS =         -11620.38
             --------                                   --------

 TOTAL STORAGE CHANGE =         120460.72         STORAGE CHANGE =         -11633.88
       --------------                             --------------
         LAND SURFACE =         725980.66           LAND SURFACE =                  
            SOIL ZONE =        1051425.10              SOIL ZONE =             49.94
     UNSATURATED ZONE =       -2280244.82       UNSATURATED ZONE =         -15356.23
       SATURATED ZONE =         623299.59         SATURATED ZONE =           3672.41

 OVERALL BUDGET ERROR =          14758.38           BUDGET ERROR =             13.50


  PERCENT DISCREPANCY =              0.65    PERCENT DISCREPANCY =              0.12



1
 SUMMARY VOLUMETRIC BUDGET FOR GSFLOW 
 DATE: 12 30 1990              CUMULATIVE TIME STEP:      30
 MODFLOW STRESS PERIOD      4     CURRENT TIME STEP:      91     ITERATIONS:       5

 -----------------------------------------------------------------------------------

   CUMULATIVE VOLUMES               L**3   RATES FOR THIS TIME STEP           L**3/T
   ------------------                      ------------------------

                                     IN                                         IN
                                     --                                         --
        PRECIPITATION =        2276236.55          PRECIPITATION =                  
           STREAMFLOW =                               STREAMFLOW =                  
     GW BOUNDARY FLOW =              0.77       GW BOUNDARY FLOW =              0.14


                                    OUT                                        OUT
                                    ---                                        ---
   EVAPOTRANSPIRATION =        1307182.09     EVAPOTRANSPIRATION =                  
           STREAMFLOW =         912903.35             STREAMFLOW =          11646.94
     GW BOUNDARY FLOW =           3269.45       GW BOUNDARY FLOW =             35.60

   INFLOWS - OUTFLOWS =          52882.43     INFLOWS - OUTFLOWS =         -11682.40
             --------                                   --------

 TOTAL STORAGE CHANGE =          38044.81         STORAGE CHANGE =         -11692.16
       --------------                             --------------
         LAND SURFACE =         725228.17           LAND SURFACE =                  
            SOIL ZONE =        1051974.11              SOIL ZONE =             97.36
     UNSATURATED ZONE =       -2385579.65       UNSATURATED ZONE =         -14811.01
       SATURATED ZONE =         646421.94         SATURATED ZONE =           3021.49

 OVERALL BUDGET ERROR =          14837.62           BUDGET ERROR =              9.76


  PERCENT DISCREPANCY =              0.65    PERCENT DISCREPANCY =              0.08



1
 SUMMARY VOLUMETRIC BUDGET FOR GSFLOW 
 DATE: 01 06 1991              CUMULATIVE TIME STEP:       6
 MODFLOW STRESS PERIOD      5     CURRENT TIME STEP:      98     ITERATIONS:       5

 -----------------------------------------------------------------------------------

   CUMULATIVE VOLUMES               L**3   RATES FOR THIS TIME STEP           L**3/T
   ------------------                      ------------------------

                                     IN                                         IN
                                     --                                         --
        PRECIPITATION =        2276236.55          PRECIPITATION =                  
           STREAMFLOW =                               STREAMFLOW =                  
     GW BOUNDARY FLOW =              2.09       GW BOUNDARY FLOW =              0.22


                                    OUT                                        OUT
                                    ---                                        ---
   EVAPOTRANSPIRATION =        1330459.77     EVAPOTRANSPIRATION =           2584.60
           STREAMFLOW =         994850.78             STREAMFLOW =          11745.06
     GW BOUNDARY FLOW =           3519.34       GW BOUNDARY FLOW =             35.75

   INFLOWS - OUTFLOWS =         -52591.24     INFLOWS - OUTFLOWS =         -14365.19
             --------                                   --------

 TOTAL STORAGE CHANGE =         -69899.43         STORAGE CHANGE =         -14492.26
       --------------                             --------------
         LAND SURFACE =         620283.30           LAND SURFACE =          -6112.33
            SOIL ZONE =        1131911.69              SOIL ZONE =           3501.63
     UNSATURATED ZONE =       -2486957.55       UNSATURATED ZONE =         -14241.42
       SATURATED ZONE =         664862.86         SATURATED ZONE =           2359.86

 OVERALL BUDGET ERROR =          17308.19           BUDGET ERROR =            127.07


  PERCENT DISCREPANCY =              0.74    PERCENT DISCREPANCY =              0.88



1
 SUMMARY VOLUMETRIC BUDGET FOR GSFLOW 
 DATE: 01 13 1991              CUMULATIVE TIME STEP:      13
 MODFLOW STRESS PERIOD      5     CURRENT TIME STEP:     105     ITERATIONS:       6

 -----------------------------------------------------------------------------------

   CUMULATIVE VOLUMES               L**3   RATES FOR THIS TIME STEP           L**3/T
   ------------------                      ------------------------

                                     IN                                         IN
                                     --                                         --
        PRECIPITATION =        2596386.94          PRECIPITATION =          10327.43
           STREAMFLOW =                               STREAMFLOW =                  
     GW BOUNDARY FLOW =              4.02       GW BOUNDARY FLOW =              0.31


                                    OUT                                        OUT
                                    ---                                        ---
   EVAPOTRANSPIRATION =        1391041.91     EVAPOTRANSPIRATION =          17389.26
           STREAMFLOW =        1077225.76             STREAMFLOW =          11741.62
     GW BOUNDARY FLOW =           3769.57       GW BOUNDARY FLOW =             35.73

   INFLOWS - OUTFLOWS =         124353.72     INFLOWS - OUTFLOWS =         -18838.87
             --------                                   --------

 TOTAL STORAGE CHANGE =         102024.42         STORAGE CHANGE =         -20124.60
       --------------                             --------------
         LAND SURFACE =         586364.86           LAND SURFACE =        -135127.18
            SOIL ZONE =        1422192.07              SOIL ZONE =         127608.93
     UNSATURATED ZONE =       -2584277.11       UNSATURATED ZONE =         -13716.52
       SATURATED ZONE =         677744.27         SATURATED ZONE =           1110.16

 OVERALL BUDGET ERROR =          22329.30           BUDGET ERROR =           1285.73

  ***WARNING, FLUX RATES OFF > 3%

  PERCENT DISCREPANCY =              0.86    PERCENT DISCREPANCY =              4.31



1
 SUMMARY VOLUMETRIC BUDGET FOR GSFLOW 
 DATE: 01 20 1991              CUMULATIVE TIME STEP:      20
 MODFLOW STRESS PERIOD      5     CURRENT TIME STEP:     112     ITERATIONS:       5

 -----------------------------------------------------------------------------------

   CUMULATIVE VOLUMES               L**3   RATES FOR THIS TIME STEP           L**3/T
   ------------------                      ------------------------

                                     IN                                         IN
                                     --                                         --
        PRECIPITATION =        2596386.94          PRECIPITATION =                  
           STREAMFLOW =                               STREAMFLOW =                  
     GW BOUNDARY FLOW =              6.55       GW BOUNDARY FLOW =              0.40


                                    OUT                                        OUT
                                    ---                                        ---
   EVAPOTRANSPIRATION =        1461712.31     EVAPOTRANSPIRATION =           1892.63
           STREAMFLOW =        1160446.68             STREAMFLOW =          11907.34
     GW BOUNDARY FLOW =           4019.79       GW BOUNDARY FLOW =             35.74

   INFLOWS - OUTFLOWS =         -29785.29     INFLOWS - OUTFLOWS =         -13835.32
             --------                                   --------

 TOTAL STORAGE CHANGE =         -53165.27         STORAGE CHANGE =         -13844.42
       --------------                             --------------
         LAND SURFACE =         422210.59           LAND SURFACE =           -295.67
            SOIL ZONE =        1515301.91              SOIL ZONE =          -1547.74
     UNSATURATED ZONE =       -2677707.03       UNSATURATED ZONE =         -13124.45
       SATURATED ZONE =         687028.89         SATURATED ZONE =           1123.43

 OVERALL BUDGET ERROR =          23379.98           BUDGET ERROR =              9.11


  PERCENT DISCREPANCY =              0.89    PERCENT DISCREPANCY =              0.07



1
 SUMMARY VOLUMETRIC BUDGET FOR GSFLOW 
 DATE: 01 27 1991              CUMULATIVE TIME STEP:      27
 MODFLOW STRESS PERIOD      5     CURRENT TIME STEP:     119     ITERATIONS:       5

 -----------------------------------------------------------------------------------

   CUMULATIVE VOLUMES               L**3   RATES FOR THIS TIME STEP           L**3/T
   ------------------                      ------------------------

                                     IN                                         IN
                                     --                                         --
        PRECIPITATION =        2596386.94          PRECIPITATION =                  
           STREAMFLOW =                               STREAMFLOW =                  
     GW BOUNDARY FLOW =              9.65       GW BOUNDARY FLOW =              0.48


                                    OUT                                        OUT
                                    ---                                        ---
   EVAPOTRANSPIRATION =        1483768.54     EVAPOTRANSPIRATION =           1239.77
           STREAMFLOW =        1243743.19             STREAMFLOW =          11925.32
     GW BOUNDARY FLOW =           4269.96       GW BOUNDARY FLOW =             35.74

   INFLOWS - OUTFLOWS =        -135385.09     INFLOWS - OUTFLOWS =         -13200.34
             --------                                   --------

 TOTAL STORAGE CHANGE =        -159026.92         STORAGE CHANGE =         -13200.33
       --------------                             --------------
         LAND SURFACE =         394226.40           LAND SURFACE =           -109.80
            SOIL ZONE =        1521909.90              SOIL ZONE =          -1027.05
     UNSATURATED ZONE =       -2767614.16       UNSATURATED ZONE =         -12624.01
       SATURATED ZONE =         692450.50         SATURATED ZONE =            560.53

 OVERALL BUDGET ERROR =          23641.82           BUDGET ERROR =             -0.02


  PERCENT DISCREPANCY =              0.86    PERCENT DISCREPANCY =             -0.00



1
 SUMMARY VOLUMETRIC BUDGET FOR GSFLOW 
 DATE: 02 03 1991              CUMULATIVE TIME STEP:       3
 MODFLOW STRESS PERIOD      6     CURRENT TIME STEP:     126     ITERATIONS:       6

 -----------------------------------------------------------------------------------

   CUMULATIVE VOLUMES               L**3   RATES FOR THIS TIME STEP           L**3/T
   ------------------                      ------------------------

                                     IN                                         IN
                                     --                                         --
        PRECIPITATION =        3228422.31          PRECIPITATION =          30459.53
           STREAMFLOW =                               STREAMFLOW =                  
     GW BOUNDARY FLOW =             13.31       GW BOUNDARY FLOW =              0.55


                                    OUT                                        OUT
                                    ---                                        ---
   EVAPOTRANSPIRATION =        1586129.03     EVAPOTRANSPIRATION =          20507.84
           STREAMFLOW =        1328565.92             STREAMFLOW =          12253.79
     GW BOUNDARY FLOW =           4520.05       GW BOUNDARY FLOW =             35.74

   INFLOWS - OUTFLOWS =         309220.62     INFLOWS - OUTFLOWS =          -2337.27
             --------                                   --------

 TOTAL STORAGE CHANGE =         278504.30         STORAGE CHANGE =          -2617.20
       --------------                             --------------
         LAND SURFACE =         184727.70           LAND SURFACE =         -28670.24
            SOIL ZONE =        2254727.78              SOIL ZONE =          38292.06
     UNSATURATED ZONE =       -2854320.95       UNSATURATED ZONE =         -12220.37
       SATURATED ZONE =         693369.25         SATURATED ZONE =            -18.67

 OVERALL BUDGET ERROR =          30716.32           BUDGET ERROR =            279.93


  PERCENT DISCREPANCY =              0.96    PERCENT DISCREPANCY =              0.85



1
 SUMMARY VOLUMETRIC BUDGET FOR GSFLOW 
 DATE: 02 10 1991              CUMULATIVE TIME STEP:      10
 MODFLOW STRESS PERIOD      6     CURRENT TIME STEP:     133     ITERATIONS:       5

 -----------------------------------------------------------------------------------

   CUMULATIVE VOLUMES               L**3   RATES FOR THIS TIME STEP           L**3/T
   ------------------                      ------------------------

                                     IN                                         IN
                                     --                                         --
        PRECIPITATION =        3510173.01          PRECIPITATION =                  
           STREAMFLOW =                               STREAMFLOW =                  
     GW BOUNDARY FLOW =             17.49       GW BOUNDARY FLOW =              0.63


                                    OUT                                        OUT
                                    ---                                        ---
   EVAPOTRANSPIRATION =        1753008.80     EVAPOTRANSPIRATION =          25852.40
           STREAMFLOW =        1414677.30             STREAMFLOW =          12179.72
     GW BOUNDARY FLOW =           4770.14       GW BOUNDARY FLOW =             35.72

   INFLOWS - OUTFLOWS =         337734.26     INFLOWS - OUTFLOWS =         -38067.22
             --------                                   --------

 TOTAL STORAGE CHANGE =         303997.66         STORAGE CHANGE =         -38024.93
       --------------                             --------------
         LAND SURFACE =          90050.80           LAND SURFACE =         -12330.62
            SOIL ZONE =        2460159.06              SOIL ZONE =         -13447.44
     UNSATURATED ZONE =       -2937557.28       UNSATURATED ZONE =         -11712.42
       SATURATED ZONE =         691344.49         SATURATED ZONE =           -534.47

 OVERALL BUDGET ERROR =          33736.59           BUDGET ERROR =            -42.29


  PERCENT DISCREPANCY =              0.97    PERCENT DISCREPANCY =             -0.11



1
 SUMMARY VOLUMETRIC BUDGET FOR GSFLOW 
 DATE: 02 17 1991              CUMULATIVE TIME STEP:      17
 MODFLOW STRESS PERIOD      6     CURRENT TIME STEP:     140     ITERATIONS:       5

 -----------------------------------------------------------------------------------

   CUMULATIVE VOLUMES               L**3   RATES FOR THIS TIME STEP           L**3/T
   ------------------                      ------------------------

                                     IN                                         IN
                                     --                                         --
        PRECIPITATION =        3510173.01          PRECIPITATION =                  
           STREAMFLOW =                               STREAMFLOW =                  
     GW BOUNDARY FLOW =             22.16       GW BOUNDARY FLOW =              0.70


                                    OUT                                        OUT
                                    ---                                        ---
   EVAPOTRANSPIRATION =        1996500.04     EVAPOTRANSPIRATION =          23256.88
           STREAMFLOW =        1499528.37             STREAMFLOW =          12116.74
     GW BOUNDARY FLOW =           5020.08       GW BOUNDARY FLOW =             35.68

   INFLOWS - OUTFLOWS =           9146.68     INFLOWS - OUTFLOWS =         -35408.60
             --------                                   --------

 TOTAL STORAGE CHANGE =         -23989.61         STORAGE CHANGE =         -35332.80
       --------------                             --------------
         LAND SURFACE =          18163.74           LAND SURFACE =          -1654.25
            SOIL ZONE =        2289595.28              SOIL ZONE =         -21557.42
     UNSATURATED ZONE =       -3017197.46       UNSATURATED ZONE =         -11068.42
       SATURATED ZONE =         685448.15         SATURATED ZONE =          -1052.71

 OVERALL BUDGET ERROR =          33136.30           BUDGET ERROR =            -75.80


  PERCENT DISCREPANCY =              0.94    PERCENT DISCREPANCY =             -0.21



1
 SUMMARY VOLUMETRIC BUDGET FOR GSFLOW 
 DATE: 02 24 1991              CUMULATIVE TIME STEP:      24
 MODFLOW STRESS PERIOD      6     CURRENT TIME STEP:     147     ITERATIONS:       5

 -----------------------------------------------------------------------------------

   CUMULATIVE VOLUMES               L**3   RATES FOR THIS TIME STEP           L**3/T
   ------------------                      ------------------------

                                     IN                                         IN
                                     --                                         --
        PRECIPITATION =        3510173.01          PRECIPITATION =                  
           STREAMFLOW =                               STREAMFLOW =                  
     GW BOUNDARY FLOW =             27.31       GW BOUNDARY FLOW =              0.76


                                    OUT                                        OUT
                                    ---                                        ---
   EVAPOTRANSPIRATION =        2212662.04     EVAPOTRANSPIRATION =          21963.26
           STREAMFLOW =        1583658.86             STREAMFLOW =          11977.27
     GW BOUNDARY FLOW =           5269.00       GW BOUNDARY FLOW =             35.48

   INFLOWS - OUTFLOWS =        -291389.59     INFLOWS - OUTFLOWS =         -33975.25
             --------                                   --------

 TOTAL STORAGE CHANGE =        -323824.02         STORAGE CHANGE =         -33901.12
       --------------                             --------------
         LAND SURFACE =           6686.42           LAND SURFACE =           -239.07
            SOIL ZONE =        2086708.15              SOIL ZONE =         -21384.10
     UNSATURATED ZONE =       -3093024.16       UNSATURATED ZONE =         -10666.27
       SATURATED ZONE =         675804.81         SATURATED ZONE =          -1611.69

 OVERALL BUDGET ERROR =          32434.43           BUDGET ERROR =            -74.13


  PERCENT DISCREPANCY =              0.85    PERCENT DISCREPANCY =             -0.22



1
 SUMMARY VOLUMETRIC BUDGET FOR GSFLOW 
 DATE: 03 03 1991              CUMULATIVE TIME STEP:       3
 MODFLOW STRESS PERIOD      7     CURRENT TIME STEP:     154     ITERATIONS:       5

 -----------------------------------------------------------------------------------

   CUMULATIVE VOLUMES               L**3   RATES FOR THIS TIME STEP           L**3/T
   ------------------                      ------------------------

                                     IN                                         IN
                                     --                                         --
        PRECIPITATION =        6220189.63          PRECIPITATION =        1243187.24
           STREAMFLOW =                               STREAMFLOW =                  
     GW BOUNDARY FLOW =             32.91       GW BOUNDARY FLOW =              0.83


                                    OUT                                        OUT
                                    ---                                        ---
   EVAPOTRANSPIRATION =        2364841.73     EVAPOTRANSPIRATION =           8003.02
           STREAMFLOW =        1667234.60             STREAMFLOW =          12232.13
     GW BOUNDARY FLOW =           5516.70       GW BOUNDARY FLOW =             35.33

   INFLOWS - OUTFLOWS =        2182629.52     INFLOWS - OUTFLOWS =        1222917.59
             --------                                   --------

 TOTAL STORAGE CHANGE =        2143923.08         STORAGE CHANGE =        1216195.68
       --------------                             --------------
         LAND SURFACE =        2505904.36           LAND SURFACE =        1046748.89
            SOIL ZONE =        2143127.94              SOIL ZONE =         182127.37
     UNSATURATED ZONE =       -3165914.90       UNSATURATED ZONE =         -10284.79
       SATURATED ZONE =         660804.82         SATURATED ZONE =          -2395.80

 OVERALL BUDGET ERROR =          38706.45           BUDGET ERROR =           6721.91


  PERCENT DISCREPANCY =              0.62    PERCENT DISCREPANCY =              0.54



1
 SUMMARY VOLUMETRIC BUDGET FOR GSFLOW 
 DATE: 03 10 1991              CUMULATIVE TIME STEP:      10
 MODFLOW STRESS PERIOD      7     CURRENT TIME STEP:     161     ITERATIONS:       5

 -----------------------------------------------------------------------------------

   CUMULATIVE VOLUMES               L**3   RATES FOR THIS TIME STEP           L**3/T
   ------------------                      ------------------------

                                     IN                                         IN
                                     --                                         --
        PRECIPITATION =        8746030.42          PRECIPITATION =          32888.55
           STREAMFLOW =                               STREAMFLOW =                  
     GW BOUNDARY FLOW =             38.95       GW BOUNDARY FLOW =              0.89


                                    OUT                                        OUT
                                    ---                                        ---
   EVAPOTRANSPIRATION =        2423974.16     EVAPOTRANSPIRATION =           8408.63
           STREAMFLOW =        1801640.41             STREAMFLOW =          18230.19
     GW BOUNDARY FLOW =           5764.76       GW BOUNDARY FLOW =             35.36

   INFLOWS - OUTFLOWS =        4514690.04     INFLOWS - OUTFLOWS =           6215.26
             --------                                   --------

 TOTAL STORAGE CHANGE =        4443549.63         STORAGE CHANGE =           5203.69
       --------------                             --------------
         LAND SURFACE =        3082070.49           LAND SURFACE =            535.10
            SOIL ZONE =        3917273.46              SOIL ZONE =          11284.34
     UNSATURATED ZONE =       -3208563.82       UNSATURATED ZONE =          -5230.11
       SATURATED ZONE =         652768.45         SATURATED ZONE =          -1385.67

 OVERALL BUDGET ERROR =          71140.41           BUDGET ERROR =           1011.57

  ***WARNING, FLUX RATES OFF > 3%

  PERCENT DISCREPANCY =              0.82    PERCENT DISCREPANCY =              3.12



1
 SUMMARY VOLUMETRIC BUDGET FOR GSFLOW 
 DATE: 03 17 1991              CUMULATIVE TIME STEP:      17
 MODFLOW STRESS PERIOD      7     CURRENT TIME STEP:     168     ITERATIONS:       5

 -----------------------------------------------------------------------------------

   CUMULATIVE VOLUMES               L**3   RATES FOR THIS TIME STEP           L**3/T
   ------------------                      ------------------------

                                     IN                                         IN
                                     --                                         --
        PRECIPITATION =        9897129.71          PRECIPITATION =         157865.04
           STREAMFLOW =                               STREAMFLOW =                  
     GW BOUNDARY FLOW =             45.40       GW BOUNDARY FLOW =              0.95


                                    OUT                                        OUT
                                    ---                                        ---
   EVAPOTRANSPIRATION =        2449650.64     EVAPOTRANSPIRATION =           7593.05
           STREAMFLOW =        1921526.68             STREAMFLOW =          16661.75
     GW BOUNDARY FLOW =           6011.55       GW BOUNDARY FLOW =             35.18

   INFLOWS - OUTFLOWS =        5519986.24     INFLOWS - OUTFLOWS =         133576.02
             --------                                   --------

 TOTAL STORAGE CHANGE =        5448717.82         STORAGE CHANGE =         133611.96
       --------------                             --------------
         LAND SURFACE =        4232943.09           LAND SURFACE =         157846.09
            SOIL ZONE =        3823751.41              SOIL ZONE =         -16349.99
     UNSATURATED ZONE =       -3246947.01       UNSATURATED ZONE =          -5618.69
       SATURATED ZONE =         638969.07         SATURATED ZONE =          -2265.47

 OVERALL BUDGET ERROR =          71268.42           BUDGET ERROR =            -35.94


  PERCENT DISCREPANCY =              0.72    PERCENT DISCREPANCY =             -0.02



1
 SUMMARY VOLUMETRIC BUDGET FOR GSFLOW 
 DATE: 03 24 1991              CUMULATIVE TIME STEP:      24
 MODFLOW STRESS PERIOD      7     CURRENT TIME STEP:     175     ITERATIONS:       5

 -----------------------------------------------------------------------------------

   CUMULATIVE VOLUMES               L**3   RATES FOR THIS TIME STEP           L**3/T
   ------------------                      ------------------------

                                     IN                                         IN
                                     --                                         --
        PRECIPITATION =        1.1673D+07          PRECIPITATION =        1230031.83
           STREAMFLOW =                               STREAMFLOW =                  
     GW BOUNDARY FLOW =             52.26       GW BOUNDARY FLOW =              1.00


                                    OUT                                        OUT
                                    ---                                        ---
   EVAPOTRANSPIRATION =        2485231.25     EVAPOTRANSPIRATION =           4146.88
           STREAMFLOW =        2034853.02             STREAMFLOW =          15926.45
     GW BOUNDARY FLOW =           6257.16       GW BOUNDARY FLOW =             35.02

   INFLOWS - OUTFLOWS =        7146822.34     INFLOWS - OUTFLOWS =        1209924.49
             --------                                   --------

 TOTAL STORAGE CHANGE =        7075445.42         STORAGE CHANGE =        1210024.93
       --------------                             --------------
         LAND SURFACE =        6001644.06           LAND SURFACE =        1230031.83
            SOIL ZONE =        3740762.70              SOIL ZONE =         -11212.03
     UNSATURATED ZONE =       -3288019.96       UNSATURATED ZONE =          -6037.48
       SATURATED ZONE =         621057.16         SATURATED ZONE =          -2757.42

 OVERALL BUDGET ERROR =          71376.92           BUDGET ERROR =           -100.44


  PERCENT DISCREPANCY =              0.61    PERCENT DISCREPANCY =             -0.01



1
 SUMMARY VOLUMETRIC BUDGET FOR GSFLOW 
 DATE: 03 31 1991              CUMULATIVE TIME STEP:      31
 MODFLOW STRESS PERIOD      7     CURRENT TIME STEP:     182     ITERATIONS:       6

 -----------------------------------------------------------------------------------

   CUMULATIVE VOLUMES               L**3   RATES FOR THIS TIME STEP           L**3/T
   ------------------                      ------------------------

                                     IN                                         IN
                                     --                                         --
        PRECIPITATION =        1.2495D+07          PRECIPITATION =                  
           STREAMFLOW =                               STREAMFLOW =                  
     GW BOUNDARY FLOW =             59.52       GW BOUNDARY FLOW =              1.06


                                    OUT                                        OUT
                                    ---                                        ---
   EVAPOTRANSPIRATION =        2593522.55     EVAPOTRANSPIRATION =          44703.21
           STREAMFLOW =        2147825.27             STREAMFLOW =          17913.96
     GW BOUNDARY FLOW =           6501.79       GW BOUNDARY FLOW =             34.93

   INFLOWS - OUTFLOWS =        7747535.20     INFLOWS - OUTFLOWS =         -62651.05
             --------                                   --------

 TOTAL STORAGE CHANGE =        7671907.68         STORAGE CHANGE =         -65667.66
       --------------                             --------------
         LAND SURFACE =        6627859.43           LAND SURFACE =        -109529.99
            SOIL ZONE =        3773082.27              SOIL ZONE =          51957.94
     UNSATURATED ZONE =       -3329397.02       UNSATURATED ZONE =          -5177.23
       SATURATED ZONE =         600361.33         SATURATED ZONE =          -2918.41

 OVERALL BUDGET ERROR =          75627.52           BUDGET ERROR =           3016.61

  ***WARNING, FLUX RATES OFF > 3%

  PERCENT DISCREPANCY =              0.61    PERCENT DISCREPANCY =              4.70



1
 SUMMARY VOLUMETRIC BUDGET FOR GSFLOW 
 DATE: 04 07 1991              CUMULATIVE TIME STEP:       7
 MODFLOW STRESS PERIOD      8     CURRENT TIME STEP:     189     ITERATIONS:       7

 -----------------------------------------------------------------------------------

   CUMULATIVE VOLUMES               L**3   RATES FOR THIS TIME STEP           L**3/T
   ------------------                      ------------------------

                                     IN                                         IN
                                     --                                         --
        PRECIPITATION =        1.3018D+07          PRECIPITATION =                  
           STREAMFLOW =                               STREAMFLOW =                  
     GW BOUNDARY FLOW =             67.15       GW BOUNDARY FLOW =              1.11


                                    OUT                                        OUT
                                    ---                                        ---
   EVAPOTRANSPIRATION =        2880829.79     EVAPOTRANSPIRATION =          13551.18
           STREAMFLOW =        2395859.16             STREAMFLOW =          49988.67
     GW BOUNDARY FLOW =           6748.11       GW BOUNDARY FLOW =             35.41

   INFLOWS - OUTFLOWS =        7734366.82     INFLOWS - OUTFLOWS =         -63574.16
             --------                                   --------

 TOTAL STORAGE CHANGE =        7625178.27         STORAGE CHANGE =         -64187.02
       --------------                             --------------
         LAND SURFACE =        5127084.68           LAND SURFACE =         -59307.30
            SOIL ZONE =        5243400.90              SOIL ZONE =          -8540.70
     UNSATURATED ZONE =       -3327496.67       UNSATURATED ZONE =           6100.53
       SATURATED ZONE =         582187.43         SATURATED ZONE =          -2439.59

 OVERALL BUDGET ERROR =         109188.55           BUDGET ERROR =            612.86


  PERCENT DISCREPANCY =              0.84    PERCENT DISCREPANCY =              0.96



1
 SUMMARY VOLUMETRIC BUDGET FOR GSFLOW 
 DATE: 04 14 1991              CUMULATIVE TIME STEP:      14
 MODFLOW STRESS PERIOD      8     CURRENT TIME STEP:     196     ITERATIONS:       6

 -----------------------------------------------------------------------------------

   CUMULATIVE VOLUMES               L**3   RATES FOR THIS TIME STEP           L**3/T
   ------------------                      ------------------------

                                     IN                                         IN
                                     --                                         --
        PRECIPITATION =        1.3018D+07          PRECIPITATION =                  
           STREAMFLOW =                               STREAMFLOW =                  
     GW BOUNDARY FLOW =             75.10       GW BOUNDARY FLOW =              1.16


                                    OUT                                        OUT
                                    ---                                        ---
   EVAPOTRANSPIRATION =        3050662.17     EVAPOTRANSPIRATION =          38933.13
           STREAMFLOW =        2790196.36             STREAMFLOW =          61482.04
     GW BOUNDARY FLOW =           6996.08       GW BOUNDARY FLOW =             35.44

   INFLOWS - OUTFLOWS =        7169957.23     INFLOWS - OUTFLOWS =        -100449.45
             --------                                   --------

 TOTAL STORAGE CHANGE =        7063351.82         STORAGE CHANGE =        -101325.63
       --------------                             --------------
         LAND SURFACE =        4519797.60           LAND SURFACE =        -171937.20
            SOIL ZONE =        5261220.78              SOIL ZONE =          66931.15
     UNSATURATED ZONE =       -3283638.41       UNSATURATED ZONE =           6080.50
       SATURATED ZONE =         565969.60         SATURATED ZONE =          -2400.12

 OVERALL BUDGET ERROR =         106605.42           BUDGET ERROR =            876.19


  PERCENT DISCREPANCY =              0.82    PERCENT DISCREPANCY =              0.87



1
 SUMMARY VOLUMETRIC BUDGET FOR GSFLOW 
 DATE: 04 21 1991              CUMULATIVE TIME STEP:      21
 MODFLOW STRESS PERIOD      8     CURRENT TIME STEP:     203     ITERATIONS:       7

 -----------------------------------------------------------------------------------

   CUMULATIVE VOLUMES               L**3   RATES FOR THIS TIME STEP           L**3/T
   ------------------                      ------------------------

                                     IN                                         IN
                                     --                                         --
        PRECIPITATION =        1.3034D+07          PRECIPITATION =                  
           STREAMFLOW =                               STREAMFLOW =                  
     GW BOUNDARY FLOW =             83.37       GW BOUNDARY FLOW =              1.20


                                    OUT                                        OUT
                                    ---                                        ---
   EVAPOTRANSPIRATION =        3282334.76     EVAPOTRANSPIRATION =          43439.42
           STREAMFLOW =        3282757.30             STREAMFLOW =          83472.48
     GW BOUNDARY FLOW =           7244.59       GW BOUNDARY FLOW =             35.63

   INFLOWS - OUTFLOWS =        6461808.81     INFLOWS - OUTFLOWS =        -126946.33
             --------                                   --------

 TOTAL STORAGE CHANGE =        6365080.53         STORAGE CHANGE =        -124704.53
       --------------                             --------------
         LAND SURFACE =        3417717.42           LAND SURFACE =        -214591.82
            SOIL ZONE =        5631569.40              SOIL ZONE =          83120.93
     UNSATURATED ZONE =       -3234522.90       UNSATURATED ZONE =           8839.38
       SATURATED ZONE =         550314.01         SATURATED ZONE =          -2073.08

 OVERALL BUDGET ERROR =          96728.28           BUDGET ERROR =          -2241.80


  PERCENT DISCREPANCY =              0.74    PERCENT DISCREPANCY =             -1.78



1
 SUMMARY VOLUMETRIC BUDGET FOR GSFLOW 
 DATE: 04 28 1991              CUMULATIVE TIME STEP:      28
 MODFLOW STRESS PERIOD      8     CURRENT TIME STEP:     210     ITERATIONS:       6

 -----------------------------------------------------------------------------------

   CUMULATIVE VOLUMES               L**3   RATES FOR THIS TIME STEP           L**3/T
   ------------------                      ------------------------

                                     IN                                         IN
                                     --                                         --
        PRECIPITATION =        1.3303D+07          PRECIPITATION =                  
           STREAMFLOW =                               STREAMFLOW =                  
     GW BOUNDARY FLOW =             91.91       GW BOUNDARY FLOW =              1.24


                                    OUT                                        OUT
                                    ---                                        ---
   EVAPOTRANSPIRATION =        3529185.65     EVAPOTRANSPIRATION =          55254.99
           STREAMFLOW =        3892055.40             STREAMFLOW =          84509.01
     GW BOUNDARY FLOW =           7493.86       GW BOUNDARY FLOW =             35.53

   INFLOWS - OUTFLOWS =        5874787.51     INFLOWS - OUTFLOWS =        -139798.29
             --------                                   --------

 TOTAL STORAGE CHANGE =        5816296.43         STORAGE CHANGE =        -133368.63
       --------------                             --------------
         LAND SURFACE =        2828492.52           LAND SURFACE =        -115203.82
            SOIL ZONE =        5621845.65              SOIL ZONE =         -24565.80
     UNSATURATED ZONE =       -3170837.24       UNSATURATED ZONE =           8353.27
       SATURATED ZONE =         536792.52         SATURATED ZONE =          -1952.34

 OVERALL BUDGET ERROR =          58491.08           BUDGET ERROR =          -6429.66

  ***WARNING, FLUX RATES OFF > 3%

  PERCENT DISCREPANCY =              0.44    PERCENT DISCREPANCY =             -4.71



1
 SUMMARY VOLUMETRIC BUDGET FOR GSFLOW 
 DATE: 05 05 1991              CUMULATIVE TIME STEP:       5
 MODFLOW STRESS PERIOD      9     CURRENT TIME STEP:     217     ITERATIONS:      10

 -----------------------------------------------------------------------------------

   CUMULATIVE VOLUMES               L**3   RATES FOR THIS TIME STEP           L**3/T
   ------------------                      ------------------------

                                     IN                                         IN
                                     --                                         --
        PRECIPITATION =        1.3510D+07          PRECIPITATION =                  
           STREAMFLOW =                               STREAMFLOW =                  
     GW BOUNDARY FLOW =            100.71       GW BOUNDARY FLOW =              1.27


                                    OUT                                        OUT
                                    ---                                        ---
   EVAPOTRANSPIRATION =        3878104.08     EVAPOTRANSPIRATION =          84776.04
           STREAMFLOW =        4447844.02             STREAMFLOW =          80834.77
     GW BOUNDARY FLOW =           7742.73       GW BOUNDARY FLOW =             35.57

   INFLOWS - OUTFLOWS =        5176118.01     INFLOWS - OUTFLOWS =        -165645.10
             --------                                   --------

 TOTAL STORAGE CHANGE =        5159634.27         STORAGE CHANGE =        -159806.69
       --------------                             --------------
         LAND SURFACE =        2164321.68           LAND SURFACE =        -169194.91
            SOIL ZONE =        5586592.01              SOIL ZONE =           2341.76
     UNSATURATED ZONE =       -3116640.69       UNSATURATED ZONE =           6787.88
       SATURATED ZONE =         525357.54         SATURATED ZONE =            258.40

 OVERALL BUDGET ERROR =          16483.74           BUDGET ERROR =          -5838.41

  ***WARNING, FLUX RATES OFF > 3%

  PERCENT DISCREPANCY =              0.12    PERCENT DISCREPANCY =             -3.59



1
 SUMMARY VOLUMETRIC BUDGET FOR GSFLOW 
 DATE: 05 12 1991              CUMULATIVE TIME STEP:      12
 MODFLOW STRESS PERIOD      9     CURRENT TIME STEP:     224     ITERATIONS:       6

 -----------------------------------------------------------------------------------

   CUMULATIVE VOLUMES               L**3   RATES FOR THIS TIME STEP           L**3/T
   ------------------                      ------------------------

                                     IN                                         IN
                                     --                                         --
        PRECIPITATION =        1.4029D+07          PRECIPITATION =                  
           STREAMFLOW =                               STREAMFLOW =                  
     GW BOUNDARY FLOW =            109.76       GW BOUNDARY FLOW =              1.31


                                    OUT                                        OUT
                                    ---                                        ---
   EVAPOTRANSPIRATION =        4247875.56     EVAPOTRANSPIRATION =          62578.29
           STREAMFLOW =        4997043.45             STREAMFLOW =          81198.87
     GW BOUNDARY FLOW =           7990.75       GW BOUNDARY FLOW =             35.38

   INFLOWS - OUTFLOWS =        4776422.17     INFLOWS - OUTFLOWS =        -143811.23
             --------                                   --------

 TOTAL STORAGE CHANGE =        4799143.27         STORAGE CHANGE =        -138594.03
       --------------                             --------------
         LAND SURFACE =        1719829.12           LAND SURFACE =        -195667.44
            SOIL ZONE =        5626734.64              SOIL ZONE =          51157.38
     UNSATURATED ZONE =       -3060111.14       UNSATURATED ZONE =           7784.11
       SATURATED ZONE =         512685.06         SATURATED ZONE =          -1868.41

 OVERALL BUDGET ERROR =         -22721.11           BUDGET ERROR =          -5217.20

  ***WARNING, FLUX RATES OFF > 3%

  PERCENT DISCREPANCY =             -0.16    PERCENT DISCREPANCY =             -3.69



1
 SUMMARY VOLUMETRIC BUDGET FOR GSFLOW 
 DATE: 05 19 1991              CUMULATIVE TIME STEP:      19
 MODFLOW STRESS PERIOD      9     CURRENT TIME STEP:     231     ITERATIONS:       9

 -----------------------------------------------------------------------------------

   CUMULATIVE VOLUMES               L**3   RATES FOR THIS TIME STEP           L**3/T
   ------------------                      ------------------------

                                     IN                                         IN
                                     --                                         --
        PRECIPITATION =        1.4365D+07          PRECIPITATION =                  
           STREAMFLOW =                               STREAMFLOW =                  
     GW BOUNDARY FLOW =            119.07       GW BOUNDARY FLOW =              1.35


                                    OUT                                        OUT
                                    ---                                        ---
   EVAPOTRANSPIRATION =        4647793.30     EVAPOTRANSPIRATION =          17977.42
           STREAMFLOW =        5543486.73             STREAMFLOW =          70818.10
     GW BOUNDARY FLOW =           8237.50       GW BOUNDARY FLOW =             35.09

   INFLOWS - OUTFLOWS =        4165979.85     INFLOWS - OUTFLOWS =         -88829.26
             --------                                   --------

 TOTAL STORAGE CHANGE =        4231357.43         STORAGE CHANGE =         -81935.89
       --------------                             --------------
         LAND SURFACE =        1168636.63           LAND SURFACE =         -21196.61
            SOIL ZONE =        5566865.23              SOIL ZONE =         -65616.99
     UNSATURATED ZONE =       -3005810.93       UNSATURATED ZONE =           6674.84
       SATURATED ZONE =         501657.94         SATURATED ZONE =          -1797.62

 OVERALL BUDGET ERROR =         -65377.58           BUDGET ERROR =          -6893.37

  ***WARNING, FLUX RATES OFF > 3%

  PERCENT DISCREPANCY =             -0.45    PERCENT DISCREPANCY =             -8.07



1
 SUMMARY VOLUMETRIC BUDGET FOR GSFLOW 
 DATE: 05 26 1991              CUMULATIVE TIME STEP:      26
 MODFLOW STRESS PERIOD      9     CURRENT TIME STEP:     238     ITERATIONS:       8

 -----------------------------------------------------------------------------------

   CUMULATIVE VOLUMES               L**3   RATES FOR THIS TIME STEP           L**3/T
   ------------------                      ------------------------

                                     IN                                         IN
                                     --                                         --
        PRECIPITATION =        1.4426D+07          PRECIPITATION =                  
           STREAMFLOW =                               STREAMFLOW =                  
     GW BOUNDARY FLOW =            128.64       GW BOUNDARY FLOW =              1.38


                                    OUT                                        OUT
                                    ---                                        ---
   EVAPOTRANSPIRATION =        5294822.27     EVAPOTRANSPIRATION =          71053.23
           STREAMFLOW =        5993961.01             STREAMFLOW =          52044.68
     GW BOUNDARY FLOW =           8481.84       GW BOUNDARY FLOW =             34.67

   INFLOWS - OUTFLOWS =        3129361.13     INFLOWS - OUTFLOWS =        -123131.20
             --------                                   --------

 TOTAL STORAGE CHANGE =        3234379.05         STORAGE CHANGE =        -118657.49
       --------------                             --------------
         LAND SURFACE =         620424.11           LAND SURFACE =         -40812.89
            SOIL ZONE =        5092807.79              SOIL ZONE =         -79145.14
     UNSATURATED ZONE =       -2966444.27       UNSATURATED ZONE =           3545.42
       SATURATED ZONE =         487578.76         SATURATED ZONE =          -2245.53

 OVERALL BUDGET ERROR =        -105017.92           BUDGET ERROR =          -4473.71

  ***WARNING, FLUX RATES OFF > 3%

  PERCENT DISCREPANCY =             -0.73    PERCENT DISCREPANCY =             -3.70



1
 SUMMARY VOLUMETRIC BUDGET FOR GSFLOW 
 DATE: 06 02 1991              CUMULATIVE TIME STEP:       2
 MODFLOW STRESS PERIOD     10     CURRENT TIME STEP:     245     ITERATIONS:       8

 -----------------------------------------------------------------------------------

   CUMULATIVE VOLUMES               L**3   RATES FOR THIS TIME STEP           L**3/T
   ------------------                      ------------------------

                                     IN                                         IN
                                     --                                         --
        PRECIPITATION =        1.4671D+07          PRECIPITATION =                  
           STREAMFLOW =                               STREAMFLOW =                  
     GW BOUNDARY FLOW =            138.47       GW BOUNDARY FLOW =              1.42


                                    OUT                                        OUT
                                    ---                                        ---
   EVAPOTRANSPIRATION =        5839504.76     EVAPOTRANSPIRATION =         119332.66
           STREAMFLOW =        6322688.39             STREAMFLOW =          43191.87
     GW BOUNDARY FLOW =           8723.35       GW BOUNDARY FLOW =             34.38

   INFLOWS - OUTFLOWS =        2500196.78     INFLOWS - OUTFLOWS =        -162557.48
             --------                                   --------

 TOTAL STORAGE CHANGE =        2628358.74         STORAGE CHANGE =        -158838.21
       --------------                             --------------
         LAND SURFACE =         358942.21           LAND SURFACE =         -46420.51
            SOIL ZONE =        4750296.48              SOIL ZONE =        -111359.06
     UNSATURATED ZONE =       -2952147.21       UNSATURATED ZONE =           1418.18
       SATURATED ZONE =         471249.39         SATURATED ZONE =          -2477.64

 OVERALL BUDGET ERROR =        -128161.96           BUDGET ERROR =          -3719.28


  PERCENT DISCREPANCY =             -0.87    PERCENT DISCREPANCY =             -2.31



1
 SUMMARY VOLUMETRIC BUDGET FOR GSFLOW 
 DATE: 06 09 1991              CUMULATIVE TIME STEP:       9
 MODFLOW STRESS PERIOD     10     CURRENT TIME STEP:     252     ITERATIONS:       7

 -----------------------------------------------------------------------------------

   CUMULATIVE VOLUMES               L**3   RATES FOR THIS TIME STEP           L**3/T
   ------------------                      ------------------------

                                     IN                                         IN
                                     --                                         --
        PRECIPITATION =        1.4671D+07          PRECIPITATION =                  
           STREAMFLOW =                               STREAMFLOW =                  
     GW BOUNDARY FLOW =            148.58       GW BOUNDARY FLOW =              1.46


                                    OUT                                        OUT
                                    ---                                        ---
   EVAPOTRANSPIRATION =        6555500.69     EVAPOTRANSPIRATION =         166447.12
           STREAMFLOW =        6564695.71             STREAMFLOW =          29175.18
     GW BOUNDARY FLOW =           8962.44       GW BOUNDARY FLOW =             34.00

   INFLOWS - OUTFLOWS =        1541964.55     INFLOWS - OUTFLOWS =        -195654.84
             --------                                   --------

 TOTAL STORAGE CHANGE =        1686467.95         STORAGE CHANGE =        -193579.33
       --------------                             --------------
         LAND SURFACE =         151647.51           LAND SURFACE =         -33724.69
            SOIL ZONE =        4040423.59              SOIL ZONE =        -154643.62
     UNSATURATED ZONE =       -2956546.87       UNSATURATED ZONE =          -1971.60
       SATURATED ZONE =         450919.54         SATURATED ZONE =          -3240.39

 OVERALL BUDGET ERROR =        -144503.40           BUDGET ERROR =          -2075.51


  PERCENT DISCREPANCY =             -0.98    PERCENT DISCREPANCY =             -1.07



1
 SUMMARY VOLUMETRIC BUDGET FOR GSFLOW 
 DATE: 06 16 1991              CUMULATIVE TIME STEP:      16
 MODFLOW STRESS PERIOD     10     CURRENT TIME STEP:     259     ITERATIONS:       6

 -----------------------------------------------------------------------------------

   CUMULATIVE VOLUMES               L**3   RATES FOR THIS TIME STEP           L**3/T
   ------------------                      ------------------------

                                     IN                                         IN
                                     --                                         --
        PRECIPITATION =        1.4671D+07          PRECIPITATION =                  
           STREAMFLOW =                               STREAMFLOW =                  
     GW BOUNDARY FLOW =            158.97       GW BOUNDARY FLOW =              1.50


                                    OUT                                        OUT
                                    ---                                        ---
   EVAPOTRANSPIRATION =        7514701.32     EVAPOTRANSPIRATION =         108564.18
           STREAMFLOW =        6715882.31             STREAMFLOW =          18143.18
     GW BOUNDARY FLOW =           9197.73       GW BOUNDARY FLOW =             33.48

   INFLOWS - OUTFLOWS =         431352.41     INFLOWS - OUTFLOWS =        -126739.34
             --------                                   --------

 TOTAL STORAGE CHANGE =         585368.12         STORAGE CHANGE =        -125612.68
       --------------                             --------------
         LAND SURFACE =          42141.08           LAND SURFACE =          -7293.27
            SOIL ZONE =        3118481.71              SOIL ZONE =        -104351.24
     UNSATURATED ZONE =       -2998543.60       UNSATURATED ZONE =          -9345.19
       SATURATED ZONE =         423257.31         SATURATED ZONE =          -4624.10

 OVERALL BUDGET ERROR =        -154015.70           BUDGET ERROR =          -1126.66


  PERCENT DISCREPANCY =             -1.04    PERCENT DISCREPANCY =             -0.89



1
 SUMMARY VOLUMETRIC BUDGET FOR GSFLOW 
 DATE: 06 23 1991              CUMULATIVE TIME STEP:      23
 MODFLOW STRESS PERIOD     10     CURRENT TIME STEP:     266     ITERATIONS:       7

 -----------------------------------------------------------------------------------

   CUMULATIVE VOLUMES               L**3   RATES FOR THIS TIME STEP           L**3/T
   ------------------                      ------------------------

                                     IN                                         IN
                                     --                                         --
        PRECIPITATION =        1.4671D+07          PRECIPITATION =                  
           STREAMFLOW =                               STREAMFLOW =                  
     GW BOUNDARY FLOW =            169.67       GW BOUNDARY FLOW =              1.55


                                    OUT                                        OUT
                                    ---                                        ---
   EVAPOTRANSPIRATION =        7995883.98     EVAPOTRANSPIRATION =          34647.60
           STREAMFLOW =        6828553.63             STREAMFLOW =          15569.26
     GW BOUNDARY FLOW =           9431.32       GW BOUNDARY FLOW =             33.33

   INFLOWS - OUTFLOWS =        -162724.45     INFLOWS - OUTFLOWS =         -50248.65
             --------                                   --------

 TOTAL STORAGE CHANGE =          -3290.35         STORAGE CHANGE =         -49828.12
       --------------                             --------------
         LAND SURFACE =          16911.50           LAND SURFACE =          -1658.21
            SOIL ZONE =        2663359.96              SOIL ZONE =         -34133.15
     UNSATURATED ZONE =       -3069533.13       UNSATURATED ZONE =          -8588.51
       SATURATED ZONE =         385931.19         SATURATED ZONE =          -5449.53

 OVERALL BUDGET ERROR =        -159434.10           BUDGET ERROR =           -420.53


  PERCENT DISCREPANCY =             -1.08    PERCENT DISCREPANCY =             -0.84



1
 SUMMARY VOLUMETRIC BUDGET FOR GSFLOW 
 DATE: 06 30 1991              CUMULATIVE TIME STEP:      30
 MODFLOW STRESS PERIOD     10     CURRENT TIME STEP:     273     ITERATIONS:       8

 -----------------------------------------------------------------------------------

[...]
                                    ---                                        ---
   EVAPOTRANSPIRATION =        7.3855D+07     EVAPOTRANSPIRATION =          85404.19
           STREAMFLOW =        7.4225D+07             STREAMFLOW =          13886.06
     GW BOUNDARY FLOW =          51169.16       GW BOUNDARY FLOW =             24.59

   INFLOWS - OUTFLOWS =       -1.4617D+07     INFLOWS - OUTFLOWS =         -99311.52
             --------                                   --------

 TOTAL STORAGE CHANGE =       -1.0522D+07         STORAGE CHANGE =         -97718.04
       --------------                             --------------
         LAND SURFACE =         524381.77           LAND SURFACE =         -24592.44
            SOIL ZONE =        2172808.84              SOIL ZONE =         -59075.16
     UNSATURATED ZONE =          61960.44       UNSATURATED ZONE =          -9184.34
       SATURATED ZONE =       -1.3291D+07         SATURATED ZONE =          -4877.89

 OVERALL BUDGET ERROR =       -4094213.60           BUDGET ERROR =          -1593.48


  PERCENT DISCREPANCY =             -2.80    PERCENT DISCREPANCY =             -1.62



1
 SUMMARY VOLUMETRIC BUDGET FOR GSFLOW 
 DATE: 09 03 1995              CUMULATIVE TIME STEP:       3
 MODFLOW STRESS PERIOD     61     CURRENT TIME STEP:    1799     ITERATIONS:       6

 -----------------------------------------------------------------------------------

   CUMULATIVE VOLUMES               L**3   RATES FOR THIS TIME STEP           L**3/T
   ------------------                      ------------------------

                                     IN                                         IN
                                     --                                         --
        PRECIPITATION =        1.3351D+08          PRECIPITATION =                  
           STREAMFLOW =                               STREAMFLOW =                  
     GW BOUNDARY FLOW =           5604.52       GW BOUNDARY FLOW =              3.42


                                    OUT                                        OUT
                                    ---                                        ---
   EVAPOTRANSPIRATION =        7.4431D+07     EVAPOTRANSPIRATION =          77342.33
           STREAMFLOW =        7.4309D+07             STREAMFLOW =          10733.13
     GW BOUNDARY FLOW =          51340.07       GW BOUNDARY FLOW =             24.23

   INFLOWS - OUTFLOWS =       -1.5278D+07     INFLOWS - OUTFLOWS =         -88096.27
             --------                                   --------

 TOTAL STORAGE CHANGE =       -1.1176D+07         STORAGE CHANGE =         -87815.49
       --------------                             --------------
         LAND SURFACE =         372015.97           LAND SURFACE =         -19446.39
            SOIL ZONE =        1778891.49              SOIL ZONE =         -52243.74
     UNSATURATED ZONE =          -3805.91       UNSATURATED ZONE =          -9574.45
       SATURATED ZONE =       -1.3333D+07         SATURATED ZONE =          -6562.76

 OVERALL BUDGET ERROR =       -4101488.66           BUDGET ERROR =           -280.78


  PERCENT DISCREPANCY =             -2.80    PERCENT DISCREPANCY =             -0.32



1
 SUMMARY VOLUMETRIC BUDGET FOR GSFLOW 
 DATE: 09 10 1995              CUMULATIVE TIME STEP:      10
 MODFLOW STRESS PERIOD     61     CURRENT TIME STEP:    1806     ITERATIONS:       7

 -----------------------------------------------------------------------------------

   CUMULATIVE VOLUMES               L**3   RATES FOR THIS TIME STEP           L**3/T
   ------------------                      ------------------------

                                     IN                                         IN
                                     --                                         --
        PRECIPITATION =        1.3351D+08          PRECIPITATION =                  
           STREAMFLOW =                               STREAMFLOW =                  
     GW BOUNDARY FLOW =           5628.88       GW BOUNDARY FLOW =              3.52


                                    OUT                                        OUT
                                    ---                                        ---
   EVAPOTRANSPIRATION =        7.4867D+07     EVAPOTRANSPIRATION =          58237.45
           STREAMFLOW =        7.4380D+07             STREAMFLOW =           9606.19
     GW BOUNDARY FLOW =          51509.61       GW BOUNDARY FLOW =             24.19

   INFLOWS - OUTFLOWS =       -1.5785D+07     INFLOWS - OUTFLOWS =         -67864.31
             --------                                   --------

 TOTAL STORAGE CHANGE =       -1.1681D+07         STORAGE CHANGE =         -67624.35
       --------------                             --------------
         LAND SURFACE =         271470.12           LAND SURFACE =         -12572.77
            SOIL ZONE =        1481284.08              SOIL ZONE =         -39620.74
     UNSATURATED ZONE =         -66819.68       UNSATURATED ZONE =          -8826.94
       SATURATED ZONE =       -1.3377D+07         SATURATED ZONE =          -6615.75

 OVERALL BUDGET ERROR =       -4103240.05           BUDGET ERROR =           -239.96


  PERCENT DISCREPANCY =             -2.79    PERCENT DISCREPANCY =             -0.35



1
 SUMMARY VOLUMETRIC BUDGET FOR GSFLOW 
 DATE: 09 17 1995              CUMULATIVE TIME STEP:      17
 MODFLOW STRESS PERIOD     61     CURRENT TIME STEP:    1813     ITERATIONS:       7

 -----------------------------------------------------------------------------------

   CUMULATIVE VOLUMES               L**3   RATES FOR THIS TIME STEP           L**3/T
   ------------------                      ------------------------

                                     IN                                         IN
                                     --                                         --
        PRECIPITATION =        1.3351D+08          PRECIPITATION =                  
           STREAMFLOW =                               STREAMFLOW =                  
     GW BOUNDARY FLOW =           5653.90       GW BOUNDARY FLOW =              3.62


                                    OUT                                        OUT
                                    ---                                        ---
   EVAPOTRANSPIRATION =        7.5342D+07     EVAPOTRANSPIRATION =          54670.75
           STREAMFLOW =        7.4437D+07             STREAMFLOW =           7983.18
     GW BOUNDARY FLOW =          51678.15       GW BOUNDARY FLOW =             24.08

   INFLOWS - OUTFLOWS =       -1.6316D+07     INFLOWS - OUTFLOWS =         -62674.40
             --------                                   --------

 TOTAL STORAGE CHANGE =       -1.2211D+07         STORAGE CHANGE =         -62417.43
       --------------                             --------------
         LAND SURFACE =         180685.70           LAND SURFACE =          -9600.58
            SOIL ZONE =        1168507.51              SOIL ZONE =         -35848.48
     UNSATURATED ZONE =        -132862.19       UNSATURATED ZONE =          -9286.29
       SATURATED ZONE =       -1.3437D+07         SATURATED ZONE =          -7693.92

 OVERALL BUDGET ERROR =       -4105344.13           BUDGET ERROR =           -256.97


  PERCENT DISCREPANCY =             -2.78    PERCENT DISCREPANCY =             -0.41



1
 SUMMARY VOLUMETRIC BUDGET FOR GSFLOW 
 DATE: 09 24 1995              CUMULATIVE TIME STEP:      24
 MODFLOW STRESS PERIOD     61     CURRENT TIME STEP:    1820     ITERATIONS:       7

 -----------------------------------------------------------------------------------

   CUMULATIVE VOLUMES               L**3   RATES FOR THIS TIME STEP           L**3/T
   ------------------                      ------------------------

                                     IN                                         IN
                                     --                                         --
        PRECIPITATION =        1.3351D+08          PRECIPITATION =                  
           STREAMFLOW =                               STREAMFLOW =                  
     GW BOUNDARY FLOW =           5679.57       GW BOUNDARY FLOW =              3.71


                                    OUT                                        OUT
                                    ---                                        ---
   EVAPOTRANSPIRATION =        7.5681D+07     EVAPOTRANSPIRATION =          34988.66
           STREAMFLOW =        7.4491D+07             STREAMFLOW =           8180.78
     GW BOUNDARY FLOW =          51846.63       GW BOUNDARY FLOW =             24.11

   INFLOWS - OUTFLOWS =       -1.6710D+07     INFLOWS - OUTFLOWS =         -43189.84
             --------                                   --------

 TOTAL STORAGE CHANGE =       -1.2603D+07         STORAGE CHANGE =         -42982.83
       --------------                             --------------
         LAND SURFACE =         125692.08           LAND SURFACE =          -5511.04
            SOIL ZONE =         947567.42              SOIL ZONE =         -22525.62
     UNSATURATED ZONE =        -193747.75       UNSATURATED ZONE =          -8199.86
       SATURATED ZONE =       -1.3492D+07         SATURATED ZONE =          -6758.15

 OVERALL BUDGET ERROR =       -4107099.58           BUDGET ERROR =           -207.01


  PERCENT DISCREPANCY =             -2.77    PERCENT DISCREPANCY =             -0.48



1
 SUMMARY VOLUMETRIC BUDGET FOR GSFLOW 
 DATE: 10 01 1995              CUMULATIVE TIME STEP:       1
 MODFLOW STRESS PERIOD     62     CURRENT TIME STEP:    1827     ITERATIONS:       6

 -----------------------------------------------------------------------------------

   CUMULATIVE VOLUMES               L**3   RATES FOR THIS TIME STEP           L**3/T
   ------------------                      ------------------------

                                     IN                                         IN
                                     --                                         --
        PRECIPITATION =        1.3351D+08          PRECIPITATION =                  
           STREAMFLOW =                               STREAMFLOW =                  
     GW BOUNDARY FLOW =           5705.86       GW BOUNDARY FLOW =              3.79


                                    OUT                                        OUT
                                    ---                                        ---
   EVAPOTRANSPIRATION =        7.5820D+07     EVAPOTRANSPIRATION =          20810.82
           STREAMFLOW =        7.4554D+07             STREAMFLOW =           8835.80
     GW BOUNDARY FLOW =          52015.87       GW BOUNDARY FLOW =             24.18

   INFLOWS - OUTFLOWS =       -1.6911D+07     INFLOWS - OUTFLOWS =         -29667.00
             --------                                   --------

 TOTAL STORAGE CHANGE =       -1.2803D+07         STORAGE CHANGE =         -29518.58
       --------------                             --------------
         LAND SURFACE =         102504.93           LAND SURFACE =          -2862.19
            SOIL ZONE =         860802.94              SOIL ZONE =         -13434.26
     UNSATURATED ZONE =        -246937.18       UNSATURATED ZONE =          -7494.31
       SATURATED ZONE =       -1.3529D+07         SATURATED ZONE =          -5739.67

 OVERALL BUDGET ERROR =       -4108113.28           BUDGET ERROR =           -148.42


  PERCENT DISCREPANCY =             -2.77    PERCENT DISCREPANCY =             -0.50



1
 SUMMARY VOLUMETRIC BUDGET FOR GSFLOW 
 DATE: 10 08 1995              CUMULATIVE TIME STEP:       8
 MODFLOW STRESS PERIOD     62     CURRENT TIME STEP:    1834     ITERATIONS:       6

 -----------------------------------------------------------------------------------

   CUMULATIVE VOLUMES               L**3   RATES FOR THIS TIME STEP           L**3/T
   ------------------                      ------------------------

                                     IN                                         IN
                                     --                                         --
        PRECIPITATION =        1.3351D+08          PRECIPITATION =                  
           STREAMFLOW =                               STREAMFLOW =                  
     GW BOUNDARY FLOW =           5732.71       GW BOUNDARY FLOW =              3.87


                                    OUT                                        OUT
                                    ---                                        ---
   EVAPOTRANSPIRATION =        7.5981D+07     EVAPOTRANSPIRATION =          20196.91
           STREAMFLOW =        7.4613D+07             STREAMFLOW =           8519.88
     GW BOUNDARY FLOW =          52185.00       GW BOUNDARY FLOW =             24.17

   INFLOWS - OUTFLOWS =       -1.7132D+07     INFLOWS - OUTFLOWS =         -28737.09
             --------                                   --------

 TOTAL STORAGE CHANGE =       -1.3023D+07         STORAGE CHANGE =         -28584.20
       --------------                             --------------
         LAND SURFACE =          81951.52           LAND SURFACE =          -2502.54
            SOIL ZONE =         758277.71              SOIL ZONE =         -12526.38
     UNSATURATED ZONE =        -298932.39       UNSATURATED ZONE =          -7264.58
       SATURATED ZONE =       -1.3574D+07         SATURATED ZONE =          -6302.53

 OVERALL BUDGET ERROR =       -4109270.59           BUDGET ERROR =           -152.90


  PERCENT DISCREPANCY =             -2.77    PERCENT DISCREPANCY =             -0.53



1
 SUMMARY VOLUMETRIC BUDGET FOR GSFLOW 
 DATE: 10 15 1995              CUMULATIVE TIME STEP:      15
 MODFLOW STRESS PERIOD     62     CURRENT TIME STEP:    1841     ITERATIONS:       6

 -----------------------------------------------------------------------------------

   CUMULATIVE VOLUMES               L**3   RATES FOR THIS TIME STEP           L**3/T
   ------------------                      ------------------------

                                     IN                                         IN
                                     --                                         --
        PRECIPITATION =        1.3351D+08          PRECIPITATION =                  
           STREAMFLOW =                               STREAMFLOW =                  
     GW BOUNDARY FLOW =           5760.07       GW BOUNDARY FLOW =              3.94


                                    OUT                                        OUT
                                    ---                                        ---
   EVAPOTRANSPIRATION =        7.6139D+07     EVAPOTRANSPIRATION =          25370.54
           STREAMFLOW =        7.4671D+07             STREAMFLOW =           7891.24
     GW BOUNDARY FLOW =          52354.04       GW BOUNDARY FLOW =             24.13

   INFLOWS - OUTFLOWS =       -1.7348D+07     INFLOWS - OUTFLOWS =         -33281.97
             --------                                   --------

 TOTAL STORAGE CHANGE =       -1.3238D+07         STORAGE CHANGE =         -33085.67
       --------------                             --------------
         LAND SURFACE =          63226.18           LAND SURFACE =          -2687.15
            SOIL ZONE =         662279.43              SOIL ZONE =         -15212.96
     UNSATURATED ZONE =        -350809.58       UNSATURATED ZONE =          -7634.32
       SATURATED ZONE =       -1.3622D+07         SATURATED ZONE =          -7563.08

 OVERALL BUDGET ERROR =       -4110508.24           BUDGET ERROR =           -196.30


  PERCENT DISCREPANCY =             -2.76    PERCENT DISCREPANCY =             -0.59



1
 SUMMARY VOLUMETRIC BUDGET FOR GSFLOW 
 DATE: 10 22 1995              CUMULATIVE TIME STEP:      22
 MODFLOW STRESS PERIOD     62     CURRENT TIME STEP:    1848     ITERATIONS:       7

 -----------------------------------------------------------------------------------

   CUMULATIVE VOLUMES               L**3   RATES FOR THIS TIME STEP           L**3/T
   ------------------                      ------------------------

                                     IN                                         IN
                                     --                                         --
        PRECIPITATION =        1.3351D+08          PRECIPITATION =                  
           STREAMFLOW =                               STREAMFLOW =                  
     GW BOUNDARY FLOW =           5787.91       GW BOUNDARY FLOW =              4.01


                                    OUT                                        OUT
                                    ---                                        ---
   EVAPOTRANSPIRATION =        7.6282D+07     EVAPOTRANSPIRATION =           5923.64
           STREAMFLOW =        7.4727D+07             STREAMFLOW =           9057.99
     GW BOUNDARY FLOW =          52523.06       GW BOUNDARY FLOW =             24.23

   INFLOWS - OUTFLOWS =       -1.7547D+07     INFLOWS - OUTFLOWS =         -15001.86
             --------                                   --------

 TOTAL STORAGE CHANGE =       -1.3435D+07         STORAGE CHANGE =         -14896.95
       --------------                             --------------
         LAND SURFACE =          49141.37           LAND SURFACE =           -667.02
            SOIL ZONE =         578561.48              SOIL ZONE =          -3452.73
     UNSATURATED ZONE =        -400805.77       UNSATURATED ZONE =          -6294.99
       SATURATED ZONE =       -1.3672D+07         SATURATED ZONE =          -4494.05

 OVERALL BUDGET ERROR =       -4111784.20           BUDGET ERROR =           -104.91


  PERCENT DISCREPANCY =             -2.76    PERCENT DISCREPANCY =             -0.70



1
 SUMMARY VOLUMETRIC BUDGET FOR GSFLOW 
 DATE: 10 29 1995              CUMULATIVE TIME STEP:      29
 MODFLOW STRESS PERIOD     62     CURRENT TIME STEP:    1855     ITERATIONS:       5

 -----------------------------------------------------------------------------------

   CUMULATIVE VOLUMES               L**3   RATES FOR THIS TIME STEP           L**3/T
   ------------------                      ------------------------

                                     IN                                         IN
                                     --                                         --
        PRECIPITATION =        1.3351D+08          PRECIPITATION =                  
           STREAMFLOW =                               STREAMFLOW =                  
     GW BOUNDARY FLOW =           5816.20       GW BOUNDARY FLOW =              4.07


                                    OUT                                        OUT
                                    ---                                        ---
   EVAPOTRANSPIRATION =        7.6368D+07     EVAPOTRANSPIRATION =          15015.08
           STREAMFLOW =        7.4786D+07             STREAMFLOW =           8177.10
     GW BOUNDARY FLOW =          52692.46       GW BOUNDARY FLOW =             24.18

   INFLOWS - OUTFLOWS =       -1.7693D+07     INFLOWS - OUTFLOWS =         -23212.30
             --------                                   --------

 TOTAL STORAGE CHANGE =       -1.3580D+07         STORAGE CHANGE =         -23046.40
       --------------                             --------------
         LAND SURFACE =          42922.70           LAND SURFACE =          -1382.99
            SOIL ZONE =         528608.19              SOIL ZONE =          -8255.18
     UNSATURATED ZONE =        -446484.25       UNSATURATED ZONE =          -6518.97
       SATURATED ZONE =       -1.3715D+07         SATURATED ZONE =          -6901.10

 OVERALL BUDGET ERROR =       -4112863.47           BUDGET ERROR =           -165.90


  PERCENT DISCREPANCY =             -2.76    PERCENT DISCREPANCY =             -0.72



