1
 SUMMARY VOLUMETRIC BUDGET FOR GSFLOW 
 DATE: 10 07 1990              CUMULATIVE TIME STEP:       7
 MODFLOW STRESS PERIOD      2     CURRENT TIME STEP:       7     ITERATIONS:       7

 -----------------------------------------------------------------------------------

   CUMULATIVE VOLUMES               L**3   RATES FOR THIS TIME STEP           L**3/T
   ------------------                      ------------------------

                                     IN                                         IN
                                     --                                         --
        PRECIPITATION =                            PRECIPITATION =                  
           STREAMFLOW =                               STREAMFLOW =                  
     GW BOUNDARY FLOW =                         GW BOUNDARY FLOW =                  


                                    OUT                                        OUT
                                    ---                                        ---
   EVAPOTRANSPIRATION =         385031.63     EVAPOTRANSPIRATION =          11801.34
           STREAMFLOW =          45661.61             STREAMFLOW =           8128.74
     GW BOUNDARY FLOW =            252.78       GW BOUNDARY FLOW =             36.30

   INFLOWS - OUTFLOWS =        -430946.01     INFLOWS - OUTFLOWS =         -19966.38
             --------                                   --------

 TOTAL STORAGE CHANGE =        -429355.10         STORAGE CHANGE =         -19938.35
       --------------                             --------------
         LAND SURFACE =                             LAND SURFACE =                  
            SOIL ZONE =         -33384.03              SOIL ZONE =           -943.80
     UNSATURATED ZONE =        -502794.45       UNSATURATED ZONE =         -33592.86
       SATURATED ZONE =         106823.38         SATURATED ZONE =          14598.31

 OVERALL BUDGET ERROR =          -1590.91           BUDGET ERROR =            -28.04


  PERCENT DISCREPANCY =             -0.37    PERCENT DISCREPANCY =             -0.14



1
 SUMMARY VOLUMETRIC BUDGET FOR GSFLOW 
 DATE: 10 14 1990              CUMULATIVE TIME STEP:      14
 MODFLOW STRESS PERIOD      2     CURRENT TIME STEP:      14     ITERATIONS:       6

 -----------------------------------------------------------------------------------

   CUMULATIVE VOLUMES               L**3   RATES FOR THIS TIME STEP           L**3/T
   ------------------                      ------------------------

                                     IN                                         IN
                                     --                                         --
        PRECIPITATION =                            PRECIPITATION =                  
           STREAMFLOW =                               STREAMFLOW =                  
     GW BOUNDARY FLOW =                         GW BOUNDARY FLOW =                  


                                    OUT                                        OUT
                                    ---                                        ---
   EVAPOTRANSPIRATION =         665235.67     EVAPOTRANSPIRATION =          42298.13
           STREAMFLOW =         100376.39             STREAMFLOW =           7413.80
     GW BOUNDARY FLOW =            506.61       GW BOUNDARY FLOW =             36.24

   INFLOWS - OUTFLOWS =        -766118.68     INFLOWS - OUTFLOWS =         -49748.17
             --------                                   --------

 TOTAL STORAGE CHANGE =        -764154.83         STORAGE CHANGE =         -49710.99
       --------------                             --------------
         LAND SURFACE =                             LAND SURFACE =                  
            SOIL ZONE =         -58194.84              SOIL ZONE =          -4382.18
     UNSATURATED ZONE =        -877795.92       UNSATURATED ZONE =         -52080.87
       SATURATED ZONE =         171835.92         SATURATED ZONE =           6752.05

 OVERALL BUDGET ERROR =          -1963.85           BUDGET ERROR =            -37.18


  PERCENT DISCREPANCY =             -0.26    PERCENT DISCREPANCY =             -0.07



1
 SUMMARY VOLUMETRIC BUDGET FOR GSFLOW 
 DATE: 10 21 1990              CUMULATIVE TIME STEP:      21
 MODFLOW STRESS PERIOD      2     CURRENT TIME STEP:      21     ITERATIONS:       6

 -----------------------------------------------------------------------------------

   CUMULATIVE VOLUMES               L**3   RATES FOR THIS TIME STEP           L**3/T
   ------------------                      ------------------------

                                     IN                                         IN
                                     --                                         --
        PRECIPITATION =         188432.87          PRECIPITATION =                  
           STREAMFLOW =                               STREAMFLOW =                  
     GW BOUNDARY FLOW =                         GW BOUNDARY FLOW =                  


                                    OUT                                        OUT
                                    ---                                        ---
   EVAPOTRANSPIRATION =         815489.22     EVAPOTRANSPIRATION =          41709.13
           STREAMFLOW =         163148.40             STREAMFLOW =          10149.57
     GW BOUNDARY FLOW =            760.80       GW BOUNDARY FLOW =             36.37

   INFLOWS - OUTFLOWS =        -790965.55     INFLOWS - OUTFLOWS =         -51895.08
             --------                                   --------

 TOTAL STORAGE CHANGE =        -790209.68         STORAGE CHANGE =         -51904.03
       --------------                             --------------
         LAND SURFACE =          18885.57           LAND SURFACE =         -43558.49
            SOIL ZONE =          47305.12              SOIL ZONE =           2013.89
     UNSATURATED ZONE =       -1091550.92       UNSATURATED ZONE =         -21331.09
       SATURATED ZONE =         235150.55         SATURATED ZONE =          10971.65

 OVERALL BUDGET ERROR =           -755.87           BUDGET ERROR =              8.96


  PERCENT DISCREPANCY =             -0.08    PERCENT DISCREPANCY =              0.02



1
 SUMMARY VOLUMETRIC BUDGET FOR GSFLOW 
 DATE: 10 28 1990              CUMULATIVE TIME STEP:      28
 MODFLOW STRESS PERIOD      2     CURRENT TIME STEP:      28     ITERATIONS:       6

 -----------------------------------------------------------------------------------

   CUMULATIVE VOLUMES               L**3   RATES FOR THIS TIME STEP           L**3/T
   ------------------                      ------------------------

                                     IN                                         IN
                                     --                                         --
        PRECIPITATION =         188432.87          PRECIPITATION =                  
           STREAMFLOW =                               STREAMFLOW =                  
     GW BOUNDARY FLOW =                         GW BOUNDARY FLOW =                  


                                    OUT                                        OUT
                                    ---                                        ---
   EVAPOTRANSPIRATION =         943862.24     EVAPOTRANSPIRATION =          11829.67
           STREAMFLOW =         224584.33             STREAMFLOW =           8922.21
     GW BOUNDARY FLOW =           1013.98       GW BOUNDARY FLOW =             36.12

   INFLOWS - OUTFLOWS =        -981027.68     INFLOWS - OUTFLOWS =         -20788.01
             --------                                   --------

 TOTAL STORAGE CHANGE =        -980210.82         STORAGE CHANGE =         -20777.98
       --------------                             --------------
         LAND SURFACE =                             LAND SURFACE =                  
            SOIL ZONE =          18260.90              SOIL ZONE =          -3430.24
     UNSATURATED ZONE =       -1274919.37       UNSATURATED ZONE =         -23234.11
       SATURATED ZONE =         276447.65         SATURATED ZONE =           5886.37

 OVERALL BUDGET ERROR =           -816.87           BUDGET ERROR =            -10.03


  PERCENT DISCREPANCY =             -0.07    PERCENT DISCREPANCY =             -0.05



1
 SUMMARY VOLUMETRIC BUDGET FOR GSFLOW 
 DATE: 11 04 1990              CUMULATIVE TIME STEP:       4
 MODFLOW STRESS PERIOD      3     CURRENT TIME STEP:      35     ITERATIONS:       6

 -----------------------------------------------------------------------------------

   CUMULATIVE VOLUMES               L**3   RATES FOR THIS TIME STEP           L**3/T
   ------------------                      ------------------------

                                     IN                                         IN
                                     --                                         --
        PRECIPITATION =         703113.06          PRECIPITATION =                  
           STREAMFLOW =                               STREAMFLOW =                  
     GW BOUNDARY FLOW =                         GW BOUNDARY FLOW =                  


                                    OUT                                        OUT
                                    ---                                        ---
   EVAPOTRANSPIRATION =        1004442.00     EVAPOTRANSPIRATION =          26278.39
           STREAMFLOW =         295149.75             STREAMFLOW =          10641.49
     GW BOUNDARY FLOW =           1267.03       GW BOUNDARY FLOW =             36.14

   INFLOWS - OUTFLOWS =        -597745.72     INFLOWS - OUTFLOWS =         -36956.02
             --------                                   --------

 TOTAL STORAGE CHANGE =        -602110.51         STORAGE CHANGE =         -38247.71
       --------------                             --------------
         LAND SURFACE =         132159.65           LAND SURFACE =        -160480.33
            SOIL ZONE =         349910.13              SOIL ZONE =         132879.95
     UNSATURATED ZONE =       -1420412.70       UNSATURATED ZONE =         -20041.16
       SATURATED ZONE =         336232.39         SATURATED ZONE =           9393.83

 OVERALL BUDGET ERROR =           4364.80           BUDGET ERROR =           1291.69

  ***WARNING, FLUX RATES OFF > 3%

  PERCENT DISCREPANCY =              0.33    PERCENT DISCREPANCY =              3.44



1
 SUMMARY VOLUMETRIC BUDGET FOR GSFLOW 
 DATE: 11 11 1990              CUMULATIVE TIME STEP:      11
 MODFLOW STRESS PERIOD      3     CURRENT TIME STEP:      42     ITERATIONS:       6

 -----------------------------------------------------------------------------------

   CUMULATIVE VOLUMES               L**3   RATES FOR THIS TIME STEP           L**3/T
   ------------------                      ------------------------

                                     IN                                         IN
                                     --                                         --
        PRECIPITATION =         703113.06          PRECIPITATION =                  
           STREAMFLOW =                               STREAMFLOW =                  
     GW BOUNDARY FLOW =                         GW BOUNDARY FLOW =                  


                                    OUT                                        OUT
                                    ---                                        ---
   EVAPOTRANSPIRATION =        1081545.98     EVAPOTRANSPIRATION =          12122.03
           STREAMFLOW =         366242.33             STREAMFLOW =           9649.21
     GW BOUNDARY FLOW =           1519.14       GW BOUNDARY FLOW =             35.93

   INFLOWS - OUTFLOWS =        -746194.37     INFLOWS - OUTFLOWS =         -21807.17
             --------                                   --------

 TOTAL STORAGE CHANGE =        -750726.72         STORAGE CHANGE =         -21803.82
       --------------                             --------------
         LAND SURFACE =            595.09           LAND SURFACE =          -1416.54
            SOIL ZONE =         422044.37              SOIL ZONE =          -5448.86
     UNSATURATED ZONE =       -1559503.97       UNSATURATED ZONE =         -19853.03
       SATURATED ZONE =         386137.76         SATURATED ZONE =           4914.60

 OVERALL BUDGET ERROR =           4532.34           BUDGET ERROR =             -3.34


  PERCENT DISCREPANCY =              0.31    PERCENT DISCREPANCY =             -0.02



1
 SUMMARY VOLUMETRIC BUDGET FOR GSFLOW 
 DATE: 11 18 1990              CUMULATIVE TIME STEP:      18
 MODFLOW STRESS PERIOD      3     CURRENT TIME STEP:      49     ITERATIONS:       6

 -----------------------------------------------------------------------------------

   CUMULATIVE VOLUMES               L**3   RATES FOR THIS TIME STEP           L**3/T
   ------------------                      ------------------------

                                     IN                                         IN
                                     --                                         --
        PRECIPITATION =         747883.35          PRECIPITATION =                  
           STREAMFLOW =                               STREAMFLOW =                  
     GW BOUNDARY FLOW =                         GW BOUNDARY FLOW =                  


                                    OUT                                        OUT
                                    ---                                        ---
   EVAPOTRANSPIRATION =        1153929.57     EVAPOTRANSPIRATION =           5051.89
           STREAMFLOW =         437973.04             STREAMFLOW =          10677.44
     GW BOUNDARY FLOW =           1770.45       GW BOUNDARY FLOW =             35.88

   INFLOWS - OUTFLOWS =        -845789.71     INFLOWS - OUTFLOWS =         -15765.21
             --------                                   --------

 TOTAL STORAGE CHANGE =        -850346.49         STORAGE CHANGE =         -15774.59
       --------------                             --------------
         LAND SURFACE =           7868.08           LAND SURFACE =          -3691.47
            SOIL ZONE =         404074.70              SOIL ZONE =           -743.61
     UNSATURATED ZONE =       -1692660.97       UNSATURATED ZONE =         -18607.15
       SATURATED ZONE =         430371.65         SATURATED ZONE =           7267.64

 OVERALL BUDGET ERROR =           4556.78           BUDGET ERROR =              9.38


  PERCENT DISCREPANCY =              0.29    PERCENT DISCREPANCY =              0.06



1
 SUMMARY VOLUMETRIC BUDGET FOR GSFLOW 
 DATE: 11 25 1990              CUMULATIVE TIME STEP:      25
 MODFLOW STRESS PERIOD      3     CURRENT TIME STEP:      56     ITERATIONS:       6

 -----------------------------------------------------------------------------------

   CUMULATIVE VOLUMES               L**3   RATES FOR THIS TIME STEP           L**3/T
   ------------------                      ------------------------

                                     IN                                         IN
                                     --                                         --
        PRECIPITATION =        1009043.38          PRECIPITATION =         186542.88
           STREAMFLOW =                               STREAMFLOW =                  
     GW BOUNDARY FLOW =                         GW BOUNDARY FLOW =                  


                                    OUT                                        OUT
                                    ---                                        ---
   EVAPOTRANSPIRATION =        1214350.95     EVAPOTRANSPIRATION =           3755.16
           STREAMFLOW =         513988.51             STREAMFLOW =          10868.85
     GW BOUNDARY FLOW =           2021.40       GW BOUNDARY FLOW =             35.79

   INFLOWS - OUTFLOWS =        -721317.48     INFLOWS - OUTFLOWS =         171883.07
             --------                                   --------

 TOTAL STORAGE CHANGE =        -728100.97         STORAGE CHANGE =         169951.07
       --------------                             --------------
         LAND SURFACE =          86180.68           LAND SURFACE =          69567.13
            SOIL ZONE =         526114.91              SOIL ZONE =         112015.72
     UNSATURATED ZONE =       -1820242.57       UNSATURATED ZONE =         -17909.88
       SATURATED ZONE =         479845.96         SATURATED ZONE =           6278.10

 OVERALL BUDGET ERROR =           6783.48           BUDGET ERROR =           1932.00


  PERCENT DISCREPANCY =              0.39    PERCENT DISCREPANCY =              1.04



1
 SUMMARY VOLUMETRIC BUDGET FOR GSFLOW 
 DATE: 12 02 1990              CUMULATIVE TIME STEP:       2
 MODFLOW STRESS PERIOD      4     CURRENT TIME STEP:      63     ITERATIONS:       6

 -----------------------------------------------------------------------------------

   CUMULATIVE VOLUMES               L**3   RATES FOR THIS TIME STEP           L**3/T
   ------------------                      ------------------------

                                     IN                                         IN
                                     --                                         --
        PRECIPITATION =        1449284.55          PRECIPITATION =                  
           STREAMFLOW =                               STREAMFLOW =                  
     GW BOUNDARY FLOW =                         GW BOUNDARY FLOW =                  


                                    OUT                                        OUT
                                    ---                                        ---
   EVAPOTRANSPIRATION =        1220846.62     EVAPOTRANSPIRATION =            234.69
           STREAMFLOW =         591212.15             STREAMFLOW =          11077.12
     GW BOUNDARY FLOW =           2271.89       GW BOUNDARY FLOW =             35.77

   INFLOWS - OUTFLOWS =        -365046.10     INFLOWS - OUTFLOWS =         -11347.57
             --------                                   --------

 TOTAL STORAGE CHANGE =        -372967.19         STORAGE CHANGE =         -11357.64
       --------------                             --------------
         LAND SURFACE =         486845.62           LAND SURFACE =           -339.04
            SOIL ZONE =         558396.62              SOIL ZONE =            150.78
     UNSATURATED ZONE =       -1943092.38       UNSATURATED ZONE =         -17256.15
       SATURATED ZONE =         524882.86         SATURATED ZONE =           6086.77

 OVERALL BUDGET ERROR =           7921.10           BUDGET ERROR =             10.07


  PERCENT DISCREPANCY =              0.44    PERCENT DISCREPANCY =              0.09



1
 SUMMARY VOLUMETRIC BUDGET FOR GSFLOW 
 DATE: 12 09 1990              CUMULATIVE TIME STEP:       9
 MODFLOW STRESS PERIOD      4     CURRENT TIME STEP:      70     ITERATIONS:       6

 -----------------------------------------------------------------------------------

   CUMULATIVE VOLUMES               L**3   RATES FOR THIS TIME STEP           L**3/T
   ------------------                      ------------------------

                                     IN                                         IN
                                     --                                         --
        PRECIPITATION =        1449284.55          PRECIPITATION =                  
           STREAMFLOW =                               STREAMFLOW =                  
     GW BOUNDARY FLOW =                         GW BOUNDARY FLOW =                  


                                    OUT                                        OUT
                                    ---                                        ---
   EVAPOTRANSPIRATION =        1296655.21     EVAPOTRANSPIRATION =          13836.64
           STREAMFLOW =         668964.00             STREAMFLOW =          10924.40
     GW BOUNDARY FLOW =           2521.85       GW BOUNDARY FLOW =             35.65

   INFLOWS - OUTFLOWS =        -518856.50     INFLOWS - OUTFLOWS =         -24796.69
             --------                                   --------

 TOTAL STORAGE CHANGE =        -531362.75         STORAGE CHANGE =         -24919.24
       --------------                             --------------
         LAND SURFACE =          67215.40           LAND SURFACE =         -45889.70
            SOIL ZONE =         900826.68              SOIL ZONE =          33513.36
     UNSATURATED ZONE =       -2060899.89       UNSATURATED ZONE =         -16488.06
       SATURATED ZONE =         561494.94         SATURATED ZONE =           3945.15

 OVERALL BUDGET ERROR =          12506.25           BUDGET ERROR =            122.55


  PERCENT DISCREPANCY =              0.63    PERCENT DISCREPANCY =              0.49



1
 SUMMARY VOLUMETRIC BUDGET FOR GSFLOW 
 DATE: 12 16 1990              CUMULATIVE TIME STEP:      16
 MODFLOW STRESS PERIOD      4     CURRENT TIME STEP:      77     ITERATIONS:       5

 -----------------------------------------------------------------------------------

   CUMULATIVE VOLUMES               L**3   RATES FOR THIS TIME STEP           L**3/T
   ------------------                      ------------------------

                                     IN                                         IN
                                     --                                         --
        PRECIPITATION =        1804962.84          PRECIPITATION =                  
           STREAMFLOW =                               STREAMFLOW =                  
     GW BOUNDARY FLOW =                         GW BOUNDARY FLOW =                  


                                    OUT                                        OUT
                                    ---                                        ---
   EVAPOTRANSPIRATION =        1324913.10     EVAPOTRANSPIRATION =                  
           STREAMFLOW =         748632.09             STREAMFLOW =          11512.34
     GW BOUNDARY FLOW =           2771.26       GW BOUNDARY FLOW =             35.61

   INFLOWS - OUTFLOWS =        -271353.61     INFLOWS - OUTFLOWS =         -11547.95
             --------                                   --------

 TOTAL STORAGE CHANGE =        -286220.07         STORAGE CHANGE =         -11559.17
       --------------                             --------------
         LAND SURFACE =         252566.26           LAND SURFACE =                  
            SOIL ZONE =        1043228.58              SOIL ZONE =            -18.91
     UNSATURATED ZONE =       -2174241.60       UNSATURATED ZONE =         -15930.55
       SATURATED ZONE =         592226.53         SATURATED ZONE =           4390.28

 OVERALL BUDGET ERROR =          14866.46           BUDGET ERROR =             11.23


  PERCENT DISCREPANCY =              0.71    PERCENT DISCREPANCY =              0.10



1
 SUMMARY VOLUMETRIC BUDGET FOR GSFLOW 
 DATE: 12 23 1990              CUMULATIVE TIME STEP:      23
 MODFLOW STRESS PERIOD      4     CURRENT TIME STEP:      84     ITERATIONS:       6

 -----------------------------------------------------------------------------------

   CUMULATIVE VOLUMES               L**3   RATES FOR THIS TIME STEP           L**3/T
   ------------------                      ------------------------

                                     IN                                         IN
                                     --                                         --
        PRECIPITATION =        2276236.55          PRECIPITATION =                  
           STREAMFLOW =                               STREAMFLOW =                  
     GW BOUNDARY FLOW =              0.08       GW BOUNDARY FLOW =              0.04


                                    OUT                                        OUT
                                    ---                                        ---
   EVAPOTRANSPIRATION =        1325970.70     EVAPOTRANSPIRATION =                  
           STREAMFLOW =         829430.23             STREAMFLOW =          11563.68
     GW BOUNDARY FLOW =           3020.30       GW BOUNDARY FLOW =             35.57

   INFLOWS - OUTFLOWS =         117815.41     INFLOWS - OUTFLOWS =         -11599.21
             --------                                   --------

 TOTAL STORAGE CHANGE =         102877.66         STORAGE CHANGE =         -11608.77
       --------------                             --------------
         LAND SURFACE =         722784.33           LAND SURFACE =                  
            SOIL ZONE =        1043422.62              SOIL ZONE =             55.63
     UNSATURATED ZONE =       -2283450.50       UNSATURATED ZONE =         -15356.04
       SATURATED ZONE =         620121.00         SATURATED ZONE =           3691.63

 OVERALL BUDGET ERROR =          14937.74           BUDGET ERROR =              9.56


  PERCENT DISCREPANCY =              0.66    PERCENT DISCREPANCY =              0.08



1
 SUMMARY VOLUMETRIC BUDGET FOR GSFLOW 
 DATE: 12 30 1990              CUMULATIVE TIME STEP:      30
 MODFLOW STRESS PERIOD      4     CURRENT TIME STEP:      91     ITERATIONS:       5

 -----------------------------------------------------------------------------------

   CUMULATIVE VOLUMES               L**3   RATES FOR THIS TIME STEP           L**3/T
   ------------------                      ------------------------

                                     IN                                         IN
                                     --                                         --
        PRECIPITATION =        2276236.55          PRECIPITATION =                  
           STREAMFLOW =                               STREAMFLOW =                  
     GW BOUNDARY FLOW =              0.77       GW BOUNDARY FLOW =              0.14


                                    OUT                                        OUT
                                    ---                                        ---
   EVAPOTRANSPIRATION =        1326538.20     EVAPOTRANSPIRATION =                  
           STREAMFLOW =         910654.77             STREAMFLOW =          11636.12
     GW BOUNDARY FLOW =           3269.40       GW BOUNDARY FLOW =             35.60

   INFLOWS - OUTFLOWS =          35774.95     INFLOWS - OUTFLOWS =         -11671.57
             --------                                   --------

 TOTAL STORAGE CHANGE =          20773.54         STORAGE CHANGE =         -11680.06
       --------------                             --------------
         LAND SURFACE =         722216.94           LAND SURFACE =                  
            SOIL ZONE =        1044002.10              SOIL ZONE =            100.89
     UNSATURATED ZONE =       -2388743.67       UNSATURATED ZONE =         -14807.70
       SATURATED ZONE =         643297.94         SATURATED ZONE =           3026.75

 OVERALL BUDGET ERROR =          15001.40           BUDGET ERROR =              8.48


  PERCENT DISCREPANCY =              0.66    PERCENT DISCREPANCY =              0.07



1
 SUMMARY VOLUMETRIC BUDGET FOR GSFLOW 
 DATE: 01 06 1991              CUMULATIVE TIME STEP:       6
 MODFLOW STRESS PERIOD      5     CURRENT TIME STEP:      98     ITERATIONS:       5

 -----------------------------------------------------------------------------------

   CUMULATIVE VOLUMES               L**3   RATES FOR THIS TIME STEP           L**3/T
   ------------------                      ------------------------

                                     IN                                         IN
                                     --                                         --
        PRECIPITATION =        2276236.55          PRECIPITATION =                  
           STREAMFLOW =                               STREAMFLOW =                  
     GW BOUNDARY FLOW =              2.09       GW BOUNDARY FLOW =              0.22


                                    OUT                                        OUT
                                    ---                                        ---
   EVAPOTRANSPIRATION =        1353539.17     EVAPOTRANSPIRATION =           3180.55
           STREAMFLOW =         992543.63             STREAMFLOW =          11738.10
     GW BOUNDARY FLOW =           3519.29       GW BOUNDARY FLOW =             35.75

   INFLOWS - OUTFLOWS =         -73363.46     INFLOWS - OUTFLOWS =         -14954.18
             --------                                   --------

 TOTAL STORAGE CHANGE =         -91004.85         STORAGE CHANGE =         -15092.28
       --------------                             --------------
         LAND SURFACE =         592099.75           LAND SURFACE =          -8106.31
            SOIL ZONE =        1145220.91              SOIL ZONE =           4886.75
     UNSATURATED ZONE =       -2490086.33       UNSATURATED ZONE =         -14245.24
       SATURATED ZONE =         661760.54         SATURATED ZONE =           2372.51

 OVERALL BUDGET ERROR =          17641.39           BUDGET ERROR =            138.10


  PERCENT DISCREPANCY =              0.75    PERCENT DISCREPANCY =              0.92



1
 SUMMARY VOLUMETRIC BUDGET FOR GSFLOW 
 DATE: 01 13 1991              CUMULATIVE TIME STEP:      13
 MODFLOW STRESS PERIOD      5     CURRENT TIME STEP:     105     ITERATIONS:       6

 -----------------------------------------------------------------------------------

   CUMULATIVE VOLUMES               L**3   RATES FOR THIS TIME STEP           L**3/T
   ------------------                      ------------------------

                                     IN                                         IN
                                     --                                         --
        PRECIPITATION =        2596386.94          PRECIPITATION =          10327.43
           STREAMFLOW =                               STREAMFLOW =                  
     GW BOUNDARY FLOW =              4.01       GW BOUNDARY FLOW =              0.31


                                    OUT                                        OUT
                                    ---                                        ---
   EVAPOTRANSPIRATION =        1420325.76     EVAPOTRANSPIRATION =          18625.54
           STREAMFLOW =        1074861.00             STREAMFLOW =          11735.85
     GW BOUNDARY FLOW =           3769.52       GW BOUNDARY FLOW =             35.73

   INFLOWS - OUTFLOWS =          97434.68     INFLOWS - OUTFLOWS =         -20069.38
             --------                                   --------

 TOTAL STORAGE CHANGE =          74648.88         STORAGE CHANGE =         -21341.20
       --------------                             --------------
         LAND SURFACE =         529885.03           LAND SURFACE =        -135264.70
            SOIL ZONE =        1457484.55              SOIL ZONE =         126487.56
     UNSATURATED ZONE =       -2587357.37       UNSATURATED ZONE =         -13691.24
       SATURATED ZONE =         674636.34         SATURATED ZONE =           1127.18

 OVERALL BUDGET ERROR =          22785.80           BUDGET ERROR =           1271.82

  ***WARNING, FLUX RATES OFF > 3%

  PERCENT DISCREPANCY =              0.88    PERCENT DISCREPANCY =              4.10



1
 SUMMARY VOLUMETRIC BUDGET FOR GSFLOW 
 DATE: 01 20 1991              CUMULATIVE TIME STEP:      20
 MODFLOW STRESS PERIOD      5     CURRENT TIME STEP:     112     ITERATIONS:       5

 -----------------------------------------------------------------------------------

   CUMULATIVE VOLUMES               L**3   RATES FOR THIS TIME STEP           L**3/T
   ------------------                      ------------------------

                                     IN                                         IN
                                     --                                         --
        PRECIPITATION =        2596386.94          PRECIPITATION =                  
           STREAMFLOW =                               STREAMFLOW =                  
     GW BOUNDARY FLOW =              6.54       GW BOUNDARY FLOW =              0.40


                                    OUT                                        OUT
                                    ---                                        ---
   EVAPOTRANSPIRATION =        1497418.53     EVAPOTRANSPIRATION =           2453.34
           STREAMFLOW =        1158036.12             STREAMFLOW =          11900.48
     GW BOUNDARY FLOW =           4019.77       GW BOUNDARY FLOW =             35.75

   INFLOWS - OUTFLOWS =         -63080.93     INFLOWS - OUTFLOWS =         -14389.18
             --------                                   --------

 TOTAL STORAGE CHANGE =         -86885.79         STORAGE CHANGE =         -14393.30
       --------------                             --------------
         LAND SURFACE =         356897.54           LAND SURFACE =           -433.81
            SOIL ZONE =        1553072.95              SOIL ZONE =          -1962.85
     UNSATURATED ZONE =       -2680756.41       UNSATURATED ZONE =         -13123.82
       SATURATED ZONE =         683899.74         SATURATED ZONE =           1127.17

 OVERALL BUDGET ERROR =          23804.86           BUDGET ERROR =              4.12


  PERCENT DISCREPANCY =              0.89    PERCENT DISCREPANCY =              0.03



1
 SUMMARY VOLUMETRIC BUDGET FOR GSFLOW 
 DATE: 01 27 1991              CUMULATIVE TIME STEP:      27
 MODFLOW STRESS PERIOD      5     CURRENT TIME STEP:     119     ITERATIONS:       5

 -----------------------------------------------------------------------------------

   CUMULATIVE VOLUMES               L**3   RATES FOR THIS TIME STEP           L**3/T
   ------------------                      ------------------------

                                     IN                                         IN
                                     --                                         --
        PRECIPITATION =        2596386.94          PRECIPITATION =                  
           STREAMFLOW =                               STREAMFLOW =                  
     GW BOUNDARY FLOW =              9.65       GW BOUNDARY FLOW =              0.48


                                    OUT                                        OUT
                                    ---                                        ---
   EVAPOTRANSPIRATION =        1523278.89     EVAPOTRANSPIRATION =           1702.43
           STREAMFLOW =        1241344.40             STREAMFLOW =          11923.65
     GW BOUNDARY FLOW =           4269.98       GW BOUNDARY FLOW =             35.74

   INFLOWS - OUTFLOWS =        -172496.67     INFLOWS - OUTFLOWS =         -13661.34
             --------                                   --------

 TOTAL STORAGE CHANGE =        -196547.54         STORAGE CHANGE =         -13672.22
       --------------                             --------------
         LAND SURFACE =         323033.01           LAND SURFACE =           -547.84
            SOIL ZONE =        1561721.97              SOIL ZONE =          -1066.19
     UNSATURATED ZONE =       -2770683.36       UNSATURATED ZONE =         -12629.05
       SATURATED ZONE =         689380.40         SATURATED ZONE =            570.85

 OVERALL BUDGET ERROR =          24050.86           BUDGET ERROR =             10.88


  PERCENT DISCREPANCY =              0.86    PERCENT DISCREPANCY =              0.08



1
 SUMMARY VOLUMETRIC BUDGET FOR GSFLOW 
 DATE: 02 03 1991              CUMULATIVE TIME STEP:       3
 MODFLOW STRESS PERIOD      6     CURRENT TIME STEP:     126     ITERATIONS:       6

 -----------------------------------------------------------------------------------

   CUMULATIVE VOLUMES               L**3   RATES FOR THIS TIME STEP           L**3/T
   ------------------                      ------------------------

                                     IN                                         IN
                                     --                                         --
        PRECIPITATION =        3228422.31          PRECIPITATION =          30459.53
           STREAMFLOW =                               STREAMFLOW =                  
     GW BOUNDARY FLOW =             13.30       GW BOUNDARY FLOW =              0.55


                                    OUT                                        OUT
                                    ---                                        ---
   EVAPOTRANSPIRATION =        1630246.45     EVAPOTRANSPIRATION =          21403.91
           STREAMFLOW =        1326187.85             STREAMFLOW =          12226.38
     GW BOUNDARY FLOW =           4520.11       GW BOUNDARY FLOW =             35.74

   INFLOWS - OUTFLOWS =         267481.21     INFLOWS - OUTFLOWS =          -3205.94
             --------                                   --------

 TOTAL STORAGE CHANGE =         236193.40         STORAGE CHANGE =          -3486.88
       --------------                             --------------
         LAND SURFACE =         157683.43           LAND SURFACE =         -26376.35
            SOIL ZONE =        2245256.69              SOIL ZONE =          35088.21
     UNSATURATED ZONE =       -2857295.41       UNSATURATED ZONE =         -12195.49
       SATURATED ZONE =         690548.18         SATURATED ZONE =             -3.27

 OVERALL BUDGET ERROR =          31287.81           BUDGET ERROR =            280.94


  PERCENT DISCREPANCY =              0.97    PERCENT DISCREPANCY =              0.83



1
 SUMMARY VOLUMETRIC BUDGET FOR GSFLOW 
 DATE: 02 10 1991              CUMULATIVE TIME STEP:      10
 MODFLOW STRESS PERIOD      6     CURRENT TIME STEP:     133     ITERATIONS:       5

 -----------------------------------------------------------------------------------

   CUMULATIVE VOLUMES               L**3   RATES FOR THIS TIME STEP           L**3/T
   ------------------                      ------------------------

                                     IN                                         IN
                                     --                                         --
        PRECIPITATION =        3510173.01          PRECIPITATION =                  
           STREAMFLOW =                               STREAMFLOW =                  
     GW BOUNDARY FLOW =             17.48       GW BOUNDARY FLOW =              0.63


                                    OUT                                        OUT
                                    ---                                        ---
   EVAPOTRANSPIRATION =        1797597.25     EVAPOTRANSPIRATION =          25636.12
           STREAMFLOW =        1412244.31             STREAMFLOW =          12157.98
     GW BOUNDARY FLOW =           4770.19       GW BOUNDARY FLOW =             35.72

   INFLOWS - OUTFLOWS =         295578.74     INFLOWS - OUTFLOWS =         -37829.20
             --------                                   --------

 TOTAL STORAGE CHANGE =         261282.75         STORAGE CHANGE =         -37776.90
       --------------                             --------------
         LAND SURFACE =          75877.11           LAND SURFACE =          -8469.89
            SOIL ZONE =        2437150.66              SOIL ZONE =         -17105.11
     UNSATURATED ZONE =       -2940463.54       UNSATURATED ZONE =         -11687.48
       SATURATED ZONE =         688717.92         SATURATED ZONE =           -514.44

 OVERALL BUDGET ERROR =          34295.99           BUDGET ERROR =            -52.30


  PERCENT DISCREPANCY =              0.98    PERCENT DISCREPANCY =             -0.14



1
 SUMMARY VOLUMETRIC BUDGET FOR GSFLOW 
 DATE: 02 17 1991              CUMULATIVE TIME STEP:      17
 MODFLOW STRESS PERIOD      6     CURRENT TIME STEP:     140     ITERATIONS:       5

 -----------------------------------------------------------------------------------

   CUMULATIVE VOLUMES               L**3   RATES FOR THIS TIME STEP           L**3/T
   ------------------                      ------------------------

                                     IN                                         IN
                                     --                                         --
        PRECIPITATION =        3510173.01          PRECIPITATION =                  
           STREAMFLOW =                               STREAMFLOW =                  
     GW BOUNDARY FLOW =             22.15       GW BOUNDARY FLOW =              0.70


                                    OUT                                        OUT
                                    ---                                        ---
   EVAPOTRANSPIRATION =        2040490.06     EVAPOTRANSPIRATION =          23705.65
           STREAMFLOW =        1496930.62             STREAMFLOW =          12096.38
     GW BOUNDARY FLOW =           5020.12       GW BOUNDARY FLOW =             35.68

   INFLOWS - OUTFLOWS =         -32245.64     INFLOWS - OUTFLOWS =         -35837.01
             --------                                   --------

 TOTAL STORAGE CHANGE =         -65890.65         STORAGE CHANGE =         -35757.36
       --------------                             --------------
         LAND SURFACE =          17890.99           LAND SURFACE =          -1143.67
            SOIL ZONE =        2253413.28              SOIL ZONE =         -22470.72
     UNSATURATED ZONE =       -3020084.88       UNSATURATED ZONE =         -11091.60
       SATURATED ZONE =         682889.28         SATURATED ZONE =          -1051.39

 OVERALL BUDGET ERROR =          33645.02           BUDGET ERROR =            -79.65


  PERCENT DISCREPANCY =              0.95    PERCENT DISCREPANCY =             -0.22



1
 SUMMARY VOLUMETRIC BUDGET FOR GSFLOW 
 DATE: 02 24 1991              CUMULATIVE TIME STEP:      24
 MODFLOW STRESS PERIOD      6     CURRENT TIME STEP:     147     ITERATIONS:       5

 -----------------------------------------------------------------------------------

   CUMULATIVE VOLUMES               L**3   RATES FOR THIS TIME STEP           L**3/T
   ------------------                      ------------------------

                                     IN                                         IN
                                     --                                         --
        PRECIPITATION =        3510173.01          PRECIPITATION =                  
           STREAMFLOW =                               STREAMFLOW =                  
     GW BOUNDARY FLOW =             27.30       GW BOUNDARY FLOW =              0.76


                                    OUT                                        OUT
                                    ---                                        ---
   EVAPOTRANSPIRATION =        2253930.64     EVAPOTRANSPIRATION =          21630.13
           STREAMFLOW =        1581151.19             STREAMFLOW =          12004.51
     GW BOUNDARY FLOW =           5269.15       GW BOUNDARY FLOW =             35.48

   INFLOWS - OUTFLOWS =        -330150.67     INFLOWS - OUTFLOWS =         -33669.36
             --------                                   --------

 TOTAL STORAGE CHANGE =        -363071.92         STORAGE CHANGE =         -33593.39
       --------------                             --------------
         LAND SURFACE =           7435.72           LAND SURFACE =           -217.69
            SOIL ZONE =        2052180.86              SOIL ZONE =         -21120.41
     UNSATURATED ZONE =       -3096072.99       UNSATURATED ZONE =         -10681.11
       SATURATED ZONE =         673383.72         SATURATED ZONE =          -1574.19

 OVERALL BUDGET ERROR =          32921.25           BUDGET ERROR =            -75.97


  PERCENT DISCREPANCY =              0.85    PERCENT DISCREPANCY =             -0.23



1
 SUMMARY VOLUMETRIC BUDGET FOR GSFLOW 
 DATE: 03 03 1991              CUMULATIVE TIME STEP:       3
 MODFLOW STRESS PERIOD      7     CURRENT TIME STEP:     154     ITERATIONS:       5

 -----------------------------------------------------------------------------------

   CUMULATIVE VOLUMES               L**3   RATES FOR THIS TIME STEP           L**3/T
   ------------------                      ------------------------

                                     IN                                         IN
                                     --                                         --
        PRECIPITATION =        6220189.63          PRECIPITATION =        1243187.24
           STREAMFLOW =                               STREAMFLOW =                  
     GW BOUNDARY FLOW =             32.90       GW BOUNDARY FLOW =              0.83


                                    OUT                                        OUT
                                    ---                                        ---
   EVAPOTRANSPIRATION =        2405969.35     EVAPOTRANSPIRATION =           8442.47
           STREAMFLOW =        1664920.57             STREAMFLOW =          12317.69
     GW BOUNDARY FLOW =           5516.85       GW BOUNDARY FLOW =             35.34

   INFLOWS - OUTFLOWS =        2143815.76     INFLOWS - OUTFLOWS =        1222392.57
             --------                                   --------

 TOTAL STORAGE CHANGE =        2103838.22         STORAGE CHANGE =        1214866.98
       --------------                             --------------
         LAND SURFACE =        2352761.88           LAND SURFACE =         894135.84
            SOIL ZONE =        2261337.80              SOIL ZONE =         333388.37
     UNSATURATED ZONE =       -3169032.00       UNSATURATED ZONE =         -10272.87
       SATURATED ZONE =         658769.68         SATURATED ZONE =          -2384.38

 OVERALL BUDGET ERROR =          39977.54           BUDGET ERROR =           7525.59


  PERCENT DISCREPANCY =              0.64    PERCENT DISCREPANCY =              0.61



1
 SUMMARY VOLUMETRIC BUDGET FOR GSFLOW 
 DATE: 03 10 1991              CUMULATIVE TIME STEP:      10
 MODFLOW STRESS PERIOD      7     CURRENT TIME STEP:     161     ITERATIONS:       5

 -----------------------------------------------------------------------------------

   CUMULATIVE VOLUMES               L**3   RATES FOR THIS TIME STEP           L**3/T
   ------------------                      ------------------------

                                     IN                                         IN
                                     --                                         --
        PRECIPITATION =        8746030.42          PRECIPITATION =          32888.55
           STREAMFLOW =                               STREAMFLOW =                  
     GW BOUNDARY FLOW =             38.93       GW BOUNDARY FLOW =              0.89


                                    OUT                                        OUT
                                    ---                                        ---
   EVAPOTRANSPIRATION =        2479159.85     EVAPOTRANSPIRATION =           8863.49
           STREAMFLOW =        1844152.96             STREAMFLOW =          22237.52
     GW BOUNDARY FLOW =           5765.72       GW BOUNDARY FLOW =             35.45

   INFLOWS - OUTFLOWS =        4416990.82     INFLOWS - OUTFLOWS =           1752.98
             --------                                   --------

 TOTAL STORAGE CHANGE =        4356343.47         STORAGE CHANGE =           1533.39
       --------------                             --------------
         LAND SURFACE =        2523463.28           LAND SURFACE =         -14137.08
            SOIL ZONE =        4369313.58              SOIL ZONE =          18908.47
     UNSATURATED ZONE =       -3189876.10       UNSATURATED ZONE =          -1922.03
       SATURATED ZONE =         653441.66         SATURATED ZONE =          -1316.00

 OVERALL BUDGET ERROR =          60647.35           BUDGET ERROR =            219.59


  PERCENT DISCREPANCY =              0.70    PERCENT DISCREPANCY =              0.67



1
 SUMMARY VOLUMETRIC BUDGET FOR GSFLOW 
 DATE: 03 17 1991              CUMULATIVE TIME STEP:      17
 MODFLOW STRESS PERIOD      7     CURRENT TIME STEP:     168     ITERATIONS:       5

 -----------------------------------------------------------------------------------

   CUMULATIVE VOLUMES               L**3   RATES FOR THIS TIME STEP           L**3/T
   ------------------                      ------------------------

                                     IN                                         IN
                                     --                                         --
        PRECIPITATION =        9897129.71          PRECIPITATION =         157865.04
           STREAMFLOW =                               STREAMFLOW =                  
     GW BOUNDARY FLOW =             45.37       GW BOUNDARY FLOW =              0.95


                                    OUT                                        OUT
                                    ---                                        ---
   EVAPOTRANSPIRATION =        2506998.63     EVAPOTRANSPIRATION =           8079.76
           STREAMFLOW =        1987379.21             STREAMFLOW =          19808.50
     GW BOUNDARY FLOW =           6013.01       GW BOUNDARY FLOW =             35.25

   INFLOWS - OUTFLOWS =        5396784.23     INFLOWS - OUTFLOWS =         129942.48
             --------                                   --------

 TOTAL STORAGE CHANGE =        5336242.50         STORAGE CHANGE =         129987.39
       --------------                             --------------
         LAND SURFACE =        3672302.31           LAND SURFACE =         157496.61
            SOIL ZONE =        4229681.21              SOIL ZONE =         -22760.65
     UNSATURATED ZONE =       -3206827.07       UNSATURATED ZONE =          -2696.78
       SATURATED ZONE =         641084.78         SATURATED ZONE =          -2051.82

 OVERALL BUDGET ERROR =          60541.73           BUDGET ERROR =            -44.91


  PERCENT DISCREPANCY =              0.61    PERCENT DISCREPANCY =             -0.03



1
 SUMMARY VOLUMETRIC BUDGET FOR GSFLOW 
 DATE: 03 24 1991              CUMULATIVE TIME STEP:      24
 MODFLOW STRESS PERIOD      7     CURRENT TIME STEP:     175     ITERATIONS:       5

 -----------------------------------------------------------------------------------

   CUMULATIVE VOLUMES               L**3   RATES FOR THIS TIME STEP           L**3/T
   ------------------                      ------------------------

                                     IN                                         IN
                                     --                                         --
        PRECIPITATION =        1.1673D+07          PRECIPITATION =        1230031.83
           STREAMFLOW =                               STREAMFLOW =                  
     GW BOUNDARY FLOW =             52.22       GW BOUNDARY FLOW =              1.00


                                    OUT                                        OUT
                                    ---                                        ---
   EVAPOTRANSPIRATION =        2545812.73     EVAPOTRANSPIRATION =           4663.49
           STREAMFLOW =        2121966.01             STREAMFLOW =          18927.43
     GW BOUNDARY FLOW =           6259.10       GW BOUNDARY FLOW =             35.09

   INFLOWS - OUTFLOWS =        6999125.88     INFLOWS - OUTFLOWS =        1206406.83
             --------                                   --------

 TOTAL STORAGE CHANGE =        6938528.92         STORAGE CHANGE =        1206409.67
       --------------                             --------------
         LAND SURFACE =        5426161.22           LAND SURFACE =        1230031.83
            SOIL ZONE =        4116668.80              SOIL ZONE =         -17687.85
     UNSATURATED ZONE =       -3229367.44       UNSATURATED ZONE =          -3466.35
       SATURATED ZONE =         625064.87         SATURATED ZONE =          -2467.99

 OVERALL BUDGET ERROR =          60596.96           BUDGET ERROR =             -2.84


  PERCENT DISCREPANCY =              0.52    PERCENT DISCREPANCY =             -0.00



1
 SUMMARY VOLUMETRIC BUDGET FOR GSFLOW 
 DATE: 03 31 1991              CUMULATIVE TIME STEP:      31
 MODFLOW STRESS PERIOD      7     CURRENT TIME STEP:     182     ITERATIONS:       6

 -----------------------------------------------------------------------------------

   CUMULATIVE VOLUMES               L**3   RATES FOR THIS TIME STEP           L**3/T
   ------------------                      ------------------------

                                     IN                                         IN
                                     --                                         --
        PRECIPITATION =        1.2495D+07          PRECIPITATION =                  
           STREAMFLOW =                               STREAMFLOW =                  
     GW BOUNDARY FLOW =             59.46       GW BOUNDARY FLOW =              1.06


                                    OUT                                        OUT
                                    ---                                        ---
   EVAPOTRANSPIRATION =        2667193.98     EVAPOTRANSPIRATION =          47900.44
           STREAMFLOW =        2256673.95             STREAMFLOW =          22472.40
     GW BOUNDARY FLOW =           6504.21       GW BOUNDARY FLOW =             35.03

   INFLOWS - OUTFLOWS =        7565012.61     INFLOWS - OUTFLOWS =         -70406.81
             --------                                   --------

 TOTAL STORAGE CHANGE =        7503028.88         STORAGE CHANGE =         -71350.99
       --------------                             --------------
         LAND SURFACE =        5977198.26           LAND SURFACE =        -148137.48
            SOIL ZONE =        4172339.30              SOIL ZONE =          81891.39
     UNSATURATED ZONE =       -3253549.79       UNSATURATED ZONE =          -2438.29
       SATURATED ZONE =         607039.42         SATURATED ZONE =          -2666.63

 OVERALL BUDGET ERROR =          61983.73           BUDGET ERROR =            944.18


  PERCENT DISCREPANCY =              0.50    PERCENT DISCREPANCY =              1.33



1
 SUMMARY VOLUMETRIC BUDGET FOR GSFLOW 
 DATE: 04 07 1991              CUMULATIVE TIME STEP:       7
 MODFLOW STRESS PERIOD      8     CURRENT TIME STEP:     189     ITERATIONS:       7

 -----------------------------------------------------------------------------------

   CUMULATIVE VOLUMES               L**3   RATES FOR THIS TIME STEP           L**3/T
   ------------------                      ------------------------

                                     IN                                         IN
                                     --                                         --
        PRECIPITATION =        1.3018D+07          PRECIPITATION =                  
           STREAMFLOW =                               STREAMFLOW =                  
     GW BOUNDARY FLOW =             67.07       GW BOUNDARY FLOW =              1.11


                                    OUT                                        OUT
                                    ---                                        ---
   EVAPOTRANSPIRATION =        2974920.95     EVAPOTRANSPIRATION =          15898.60
           STREAMFLOW =        2579513.34             STREAMFLOW =          64568.16
     GW BOUNDARY FLOW =           6751.67       GW BOUNDARY FLOW =             35.61

   INFLOWS - OUTFLOWS =        7456617.85     INFLOWS - OUTFLOWS =         -80501.28
             --------                                   --------

 TOTAL STORAGE CHANGE =        7385507.77         STORAGE CHANGE =         -81079.07
       --------------                             --------------
         LAND SURFACE =        4335933.23           LAND SURFACE =         -73164.41
            SOIL ZONE =        5687571.18              SOIL ZONE =         -15241.59
     UNSATURATED ZONE =       -3229956.26       UNSATURATED ZONE =           9287.20
       SATURATED ZONE =         591957.66         SATURATED ZONE =          -1960.32

 OVERALL BUDGET ERROR =          71110.08           BUDGET ERROR =            577.80


  PERCENT DISCREPANCY =              0.55    PERCENT DISCREPANCY =              0.72



1
 SUMMARY VOLUMETRIC BUDGET FOR GSFLOW 
 DATE: 04 14 1991              CUMULATIVE TIME STEP:      14
 MODFLOW STRESS PERIOD      8     CURRENT TIME STEP:     196     ITERATIONS:       7

 -----------------------------------------------------------------------------------

   CUMULATIVE VOLUMES               L**3   RATES FOR THIS TIME STEP           L**3/T
   ------------------                      ------------------------

                                     IN                                         IN
                                     --                                         --
        PRECIPITATION =        1.3018D+07          PRECIPITATION =                  
           STREAMFLOW =                               STREAMFLOW =                  
     GW BOUNDARY FLOW =             74.99       GW BOUNDARY FLOW =              1.15


                                    OUT                                        OUT
                                    ---                                        ---
   EVAPOTRANSPIRATION =        3158749.12     EVAPOTRANSPIRATION =          42038.25
           STREAMFLOW =        3077789.09             STREAMFLOW =          75854.20
     GW BOUNDARY FLOW =           7001.03       GW BOUNDARY FLOW =             35.63

   INFLOWS - OUTFLOWS =        6774272.48     INFLOWS - OUTFLOWS =        -117926.93
             --------                                   --------

 TOTAL STORAGE CHANGE =        6699917.88         STORAGE CHANGE =        -118795.72
       --------------                             --------------
         LAND SURFACE =        3672284.10           LAND SURFACE =        -192335.10
            SOIL ZONE =        5616465.28              SOIL ZONE =          66811.83
     UNSATURATED ZONE =       -3168053.77       UNSATURATED ZONE =           8382.44
       SATURATED ZONE =         579219.99         SATURATED ZONE =          -1654.94

 OVERALL BUDGET ERROR =          74354.60           BUDGET ERROR =            868.79


  PERCENT DISCREPANCY =              0.57    PERCENT DISCREPANCY =              0.73



1
 SUMMARY VOLUMETRIC BUDGET FOR GSFLOW 
 DATE: 04 21 1991              CUMULATIVE TIME STEP:      21
 MODFLOW STRESS PERIOD      8     CURRENT TIME STEP:     203     ITERATIONS:       9

 -----------------------------------------------------------------------------------

   CUMULATIVE VOLUMES               L**3   RATES FOR THIS TIME STEP           L**3/T
   ------------------                      ------------------------

                                     IN                                         IN
                                     --                                         --
        PRECIPITATION =        1.3034D+07          PRECIPITATION =                  
           STREAMFLOW =                               STREAMFLOW =                  
     GW BOUNDARY FLOW =             83.21       GW BOUNDARY FLOW =              1.19


                                    OUT                                        OUT
                                    ---                                        ---
   EVAPOTRANSPIRATION =        3412245.13     EVAPOTRANSPIRATION =          46824.17
           STREAMFLOW =        3650757.01             STREAMFLOW =          93546.48
     GW BOUNDARY FLOW =           7250.61       GW BOUNDARY FLOW =             35.76

   INFLOWS - OUTFLOWS =        5963892.56     INFLOWS - OUTFLOWS =        -140405.22
             --------                                   --------

 TOTAL STORAGE CHANGE =        5884844.53         STORAGE CHANGE =        -141231.20
       --------------                             --------------
         LAND SURFACE =        2500532.49           LAND SURFACE =        -216949.67
            SOIL ZONE =        5920573.23              SOIL ZONE =          66432.59
     UNSATURATED ZONE =       -3104359.45       UNSATURATED ZONE =          10630.32
       SATURATED ZONE =         568095.63         SATURATED ZONE =          -1344.48

 OVERALL BUDGET ERROR =          79048.03           BUDGET ERROR =            825.97


  PERCENT DISCREPANCY =              0.61    PERCENT DISCREPANCY =              0.59



1
 SUMMARY VOLUMETRIC BUDGET FOR GSFLOW 
 DATE: 04 28 1991              CUMULATIVE TIME STEP:      28
 MODFLOW STRESS PERIOD      8     CURRENT TIME STEP:     210     ITERATIONS:       6

 -----------------------------------------------------------------------------------

   CUMULATIVE VOLUMES               L**3   RATES FOR THIS TIME STEP           L**3/T
   ------------------                      ------------------------

                                     IN                                         IN
                                     --                                         --
        PRECIPITATION =        1.3303D+07          PRECIPITATION =                  
           STREAMFLOW =                               STREAMFLOW =                  
     GW BOUNDARY FLOW =             91.71       GW BOUNDARY FLOW =              1.23


                                    OUT                                        OUT
                                    ---                                        ---
   EVAPOTRANSPIRATION =        3680244.50     EVAPOTRANSPIRATION =          58043.86
           STREAMFLOW =        4322418.34             STREAMFLOW =          95250.45
     GW BOUNDARY FLOW =           7500.76       GW BOUNDARY FLOW =             35.69

   INFLOWS - OUTFLOWS =        5293358.60     INFLOWS - OUTFLOWS =        -153328.76
             --------                                   --------

 TOTAL STORAGE CHANGE =        5210516.79         STORAGE CHANGE =        -153645.65
       --------------                             --------------
         LAND SURFACE =        1748177.07           LAND SURFACE =        -137137.09
            SOIL ZONE =        5929795.41              SOIL ZONE =         -25902.30
     UNSATURATED ZONE =       -3028675.61       UNSATURATED ZONE =          10364.85
       SATURATED ZONE =         561216.90         SATURATED ZONE =           -971.18

 OVERALL BUDGET ERROR =          82841.81           BUDGET ERROR =            316.89


  PERCENT DISCREPANCY =              0.62    PERCENT DISCREPANCY =              0.21



1
 SUMMARY VOLUMETRIC BUDGET FOR GSFLOW 
 DATE: 05 05 1991              CUMULATIVE TIME STEP:       5
 MODFLOW STRESS PERIOD      9     CURRENT TIME STEP:     217     ITERATIONS:      72

 -----------------------------------------------------------------------------------

   CUMULATIVE VOLUMES               L**3   RATES FOR THIS TIME STEP           L**3/T
   ------------------                      ------------------------

                                     IN                                         IN
                                     --                                         --
        PRECIPITATION =        1.3510D+07          PRECIPITATION =                  
           STREAMFLOW =                               STREAMFLOW =                  
     GW BOUNDARY FLOW =            100.46       GW BOUNDARY FLOW =              1.27


                                    OUT                                        OUT
                                    ---                                        ---
   EVAPOTRANSPIRATION =        4056859.23     EVAPOTRANSPIRATION =          90143.87
           STREAMFLOW =        4930806.81             STREAMFLOW =          86593.34
     GW BOUNDARY FLOW =           7749.41       GW BOUNDARY FLOW =             35.45

   INFLOWS - OUTFLOWS =        4514393.14     INFLOWS - OUTFLOWS =        -176771.39
             --------                                   --------

 TOTAL STORAGE CHANGE =        4429964.49         STORAGE CHANGE =        -176893.62
       --------------                             --------------
         LAND SURFACE =        1036229.48           LAND SURFACE =        -150134.30
            SOIL ZONE =        5801330.66              SOIL ZONE =         -35911.16
     UNSATURATED ZONE =       -2963099.45       UNSATURATED ZONE =           8137.06
       SATURATED ZONE =         555500.37         SATURATED ZONE =           1014.72

 OVERALL BUDGET ERROR =          84428.65           BUDGET ERROR =            122.23


  PERCENT DISCREPANCY =              0.63    PERCENT DISCREPANCY =              0.07



1
 SUMMARY VOLUMETRIC BUDGET FOR GSFLOW 
 DATE: 05 12 1991              CUMULATIVE TIME STEP:      12
 MODFLOW STRESS PERIOD      9     CURRENT TIME STEP:     224     ITERATIONS:       7

 -----------------------------------------------------------------------------------

   CUMULATIVE VOLUMES               L**3   RATES FOR THIS TIME STEP           L**3/T
   ------------------                      ------------------------

                                     IN                                         IN
                                     --                                         --
        PRECIPITATION =        1.4029D+07          PRECIPITATION =                  
           STREAMFLOW =                               STREAMFLOW =                  
     GW BOUNDARY FLOW =            109.48       GW BOUNDARY FLOW =              1.31


                                    OUT                                        OUT
                                    ---                                        ---
   EVAPOTRANSPIRATION =        4452099.20     EVAPOTRANSPIRATION =          68733.19
           STREAMFLOW =        5498172.24             STREAMFLOW =          84147.81
     GW BOUNDARY FLOW =           7996.34       GW BOUNDARY FLOW =             35.23

   INFLOWS - OUTFLOWS =        4071063.86     INFLOWS - OUTFLOWS =        -152914.93
             --------                                   --------

 TOTAL STORAGE CHANGE =        3984654.63         STORAGE CHANGE =        -152970.36
       --------------                             --------------
         LAND SURFACE =         577307.06           LAND SURFACE =        -205175.60
            SOIL ZONE =        5761718.67              SOIL ZONE =          44812.61
     UNSATURATED ZONE =       -2901292.18       UNSATURATED ZONE =           8624.24
       SATURATED ZONE =         546917.19         SATURATED ZONE =          -1231.68

 OVERALL BUDGET ERROR =          86409.23           BUDGET ERROR =             55.43


  PERCENT DISCREPANCY =              0.62    PERCENT DISCREPANCY =              0.04



1
 SUMMARY VOLUMETRIC BUDGET FOR GSFLOW 
 DATE: 05 19 1991              CUMULATIVE TIME STEP:      19
 MODFLOW STRESS PERIOD      9     CURRENT TIME STEP:     231     ITERATIONS:       9

 -----------------------------------------------------------------------------------

   CUMULATIVE VOLUMES               L**3   RATES FOR THIS TIME STEP           L**3/T
   ------------------                      ------------------------

                                     IN                                         IN
                                     --                                         --
        PRECIPITATION =        1.4365D+07          PRECIPITATION =                  
           STREAMFLOW =                               STREAMFLOW =                  
     GW BOUNDARY FLOW =            118.77       GW BOUNDARY FLOW =              1.34


                                    OUT                                        OUT
                                    ---                                        ---
   EVAPOTRANSPIRATION =        4890351.93     EVAPOTRANSPIRATION =          20369.32
           STREAMFLOW =        5990086.39             STREAMFLOW =          62295.21
     GW BOUNDARY FLOW =           8241.06       GW BOUNDARY FLOW =             34.77

   INFLOWS - OUTFLOWS =        3476817.70     INFLOWS - OUTFLOWS =         -82697.97
             --------                                   --------

 TOTAL STORAGE CHANGE =        3389425.07         STORAGE CHANGE =         -82744.34
       --------------                             --------------
         LAND SURFACE =         228246.02           LAND SURFACE =         -22354.60
            SOIL ZONE =        5477087.22              SOIL ZONE =         -64498.73
     UNSATURATED ZONE =       -2854029.80       UNSATURATED ZONE =           5359.41
       SATURATED ZONE =         538117.27         SATURATED ZONE =          -1250.50

 OVERALL BUDGET ERROR =          87392.63           BUDGET ERROR =             46.38


  PERCENT DISCREPANCY =              0.61    PERCENT DISCREPANCY =              0.06



1
 SUMMARY VOLUMETRIC BUDGET FOR GSFLOW 
 DATE: 05 26 1991              CUMULATIVE TIME STEP:      26
 MODFLOW STRESS PERIOD      9     CURRENT TIME STEP:     238     ITERATIONS:       8

 -----------------------------------------------------------------------------------

   CUMULATIVE VOLUMES               L**3   RATES FOR THIS TIME STEP           L**3/T
   ------------------                      ------------------------

                                     IN                                         IN
                                     --                                         --
        PRECIPITATION =        1.4426D+07          PRECIPITATION =                  
           STREAMFLOW =                               STREAMFLOW =                  
     GW BOUNDARY FLOW =            128.34       GW BOUNDARY FLOW =              1.39


                                    OUT                                        OUT
                                    ---                                        ---
   EVAPOTRANSPIRATION =        5574513.85     EVAPOTRANSPIRATION =          76900.78
           STREAMFLOW =        6343648.92             STREAMFLOW =          37325.70
     GW BOUNDARY FLOW =           8482.57       GW BOUNDARY FLOW =             34.22

   INFLOWS - OUTFLOWS =        2499980.61     INFLOWS - OUTFLOWS =        -114259.31
             --------                                   --------

 TOTAL STORAGE CHANGE =        2412630.42         STORAGE CHANGE =        -114372.45
       --------------                             --------------
         LAND SURFACE =          55230.26           LAND SURFACE =          -8157.07
            SOIL ZONE =        4665341.13              SOIL ZONE =        -103937.03
     UNSATURATED ZONE =       -2834816.53       UNSATURATED ZONE =           -285.59
       SATURATED ZONE =         526870.70         SATURATED ZONE =          -1992.83

 OVERALL BUDGET ERROR =          87350.19           BUDGET ERROR =            113.14


  PERCENT DISCREPANCY =              0.61    PERCENT DISCREPANCY =              0.10



1
 SUMMARY VOLUMETRIC BUDGET FOR GSFLOW 
 DATE: 06 02 1991              CUMULATIVE TIME STEP:       2
 MODFLOW STRESS PERIOD     10     CURRENT TIME STEP:     245     ITERATIONS:       8

 -----------------------------------------------------------------------------------

   CUMULATIVE VOLUMES               L**3   RATES FOR THIS TIME STEP           L**3/T
   ------------------                      ------------------------

                                     IN                                         IN
                                     --                                         --
        PRECIPITATION =        1.4671D+07          PRECIPITATION =                  
           STREAMFLOW =                               STREAMFLOW =                  
     GW BOUNDARY FLOW =            138.20       GW BOUNDARY FLOW =              1.43


                                    OUT                                        OUT
                                    ---                                        ---
   EVAPOTRANSPIRATION =        6163058.61     EVAPOTRANSPIRATION =         127566.80
           STREAMFLOW =        6570434.21             STREAMFLOW =          28374.67
     GW BOUNDARY FLOW =           8720.80       GW BOUNDARY FLOW =             33.89

   INFLOWS - OUTFLOWS =        1928899.39     INFLOWS - OUTFLOWS =        -155973.93
             --------                                   --------

 TOTAL STORAGE CHANGE =        1841896.70         STORAGE CHANGE =        -155395.07
       --------------                             --------------
         LAND SURFACE =          19758.80           LAND SURFACE =          -4093.84
            SOIL ZONE =        4161076.01              SOIL ZONE =        -145585.27
     UNSATURATED ZONE =       -2848976.68       UNSATURATED ZONE =          -2979.30
       SATURATED ZONE =         510033.20         SATURATED ZONE =          -2736.73

 OVERALL BUDGET ERROR =          87002.69           BUDGET ERROR =           -578.86


  PERCENT DISCREPANCY =              0.59    PERCENT DISCREPANCY =             -0.37



1
 SUMMARY VOLUMETRIC BUDGET FOR GSFLOW 
 DATE: 06 09 1991              CUMULATIVE TIME STEP:       9
 MODFLOW STRESS PERIOD     10     CURRENT TIME STEP:     252     ITERATIONS:       7

 -----------------------------------------------------------------------------------

   CUMULATIVE VOLUMES               L**3   RATES FOR THIS TIME STEP           L**3/T
   ------------------                      ------------------------

                                     IN                                         IN
                                     --                                         --
        PRECIPITATION =        1.4671D+07          PRECIPITATION =                  
           STREAMFLOW =                               STREAMFLOW =                  
     GW BOUNDARY FLOW =            148.37       GW BOUNDARY FLOW =              1.47


                                    OUT                                        OUT
                                    ---                                        ---
   EVAPOTRANSPIRATION =        6951539.85     EVAPOTRANSPIRATION =         172470.54
           STREAMFLOW =        6728582.94             STREAMFLOW =          19043.22
     GW BOUNDARY FLOW =           8956.52       GW BOUNDARY FLOW =             33.53

   INFLOWS - OUTFLOWS =         982043.86     INFLOWS - OUTFLOWS =        -191545.82
             --------                                   --------

 TOTAL STORAGE CHANGE =         896527.45         STORAGE CHANGE =        -190855.04
       --------------                             --------------
         LAND SURFACE =           3956.63           LAND SURFACE =          -2185.97
            SOIL ZONE =        3289324.39              SOIL ZONE =        -178849.94
     UNSATURATED ZONE =       -2883906.03       UNSATURATED ZONE =          -6062.67
       SATURATED ZONE =         487146.57         SATURATED ZONE =          -3756.54

 OVERALL BUDGET ERROR =          85516.42           BUDGET ERROR =           -690.78


  PERCENT DISCREPANCY =              0.58    PERCENT DISCREPANCY =             -0.36



1
 SUMMARY VOLUMETRIC BUDGET FOR GSFLOW 
 DATE: 06 16 1991              CUMULATIVE TIME STEP:      16
 MODFLOW STRESS PERIOD     10     CURRENT TIME STEP:     259     ITERATIONS:       6

 -----------------------------------------------------------------------------------

   CUMULATIVE VOLUMES               L**3   RATES FOR THIS TIME STEP           L**3/T
   ------------------                      ------------------------

                                     IN                                         IN
                                     --                                         --
        PRECIPITATION =        1.4671D+07          PRECIPITATION =                  
           STREAMFLOW =                               STREAMFLOW =                  
     GW BOUNDARY FLOW =            158.84       GW BOUNDARY FLOW =              1.52


                                    OUT                                        OUT
                                    ---                                        ---
   EVAPOTRANSPIRATION =        7968174.30     EVAPOTRANSPIRATION =         117014.81
           STREAMFLOW =        6831345.01             STREAMFLOW =          12779.01
     GW BOUNDARY FLOW =           9188.69       GW BOUNDARY FLOW =             33.05

   INFLOWS - OUTFLOWS =        -137574.37     INFLOWS - OUTFLOWS =        -129825.36
             --------                                   --------

 TOTAL STORAGE CHANGE =        -217802.70         STORAGE CHANGE =        -129049.17
       --------------                             --------------
         LAND SURFACE =            106.65           LAND SURFACE =            -66.98
            SOIL ZONE =        2292898.86              SOIL ZONE =        -107781.39
     UNSATURATED ZONE =       -2966037.50       UNSATURATED ZONE =         -15780.25
       SATURATED ZONE =         455222.85         SATURATED ZONE =          -5420.63

 OVERALL BUDGET ERROR =          80228.34           BUDGET ERROR =           -776.19


  PERCENT DISCREPANCY =              0.54    PERCENT DISCREPANCY =             -0.60



1
 SUMMARY VOLUMETRIC BUDGET FOR GSFLOW 
 DATE: 06 23 1991              CUMULATIVE TIME STEP:      23
 MODFLOW STRESS PERIOD     10     CURRENT TIME STEP:     266     ITERATIONS:       7

 -----------------------------------------------------------------------------------

   CUMULATIVE VOLUMES               L**3   RATES FOR THIS TIME STEP           L**3/T
   ------------------                      ------------------------

                                     IN                                         IN
                                     --                                         --
        PRECIPITATION =        1.4671D+07          PRECIPITATION =                  
           STREAMFLOW =                               STREAMFLOW =                  
     GW BOUNDARY FLOW =            169.63       GW BOUNDARY FLOW =              1.56


                                    OUT                                        OUT
                                    ---                                        ---
   EVAPOTRANSPIRATION =        8510693.53     EVAPOTRANSPIRATION =          38763.22
           STREAMFLOW =        6913968.88             STREAMFLOW =          12039.06
     GW BOUNDARY FLOW =           9419.37       GW BOUNDARY FLOW =             32.93

   INFLOWS - OUTFLOWS =        -762937.35     INFLOWS - OUTFLOWS =         -50833.65
             --------                                   --------

 TOTAL STORAGE CHANGE =        -838992.13         STORAGE CHANGE =         -50554.52
       --------------                             --------------
         LAND SURFACE =             16.57           LAND SURFACE =             -3.65
            SOIL ZONE =        1826304.88              SOIL ZONE =         -31391.76
     UNSATURATED ZONE =       -3076710.91       UNSATURATED ZONE =         -12797.70
       SATURATED ZONE =         411390.35         SATURATED ZONE =          -6361.49

 OVERALL BUDGET ERROR =          76054.78           BUDGET ERROR =           -279.13


  PERCENT DISCREPANCY =              0.49    PERCENT DISCREPANCY =             -0.55



1
 SUMMARY VOLUMETRIC BUDGET FOR GSFLOW 
 DATE: 06 30 1991              CUMULATIVE TIME STEP:      30
 MODFLOW STRESS PERIOD     10     CURRENT TIME STEP:     273     ITERATIONS:       8

 -----------------------------------------------------------------------------------

   CUMULATIVE VOLUMES               L**3   RATES FOR THIS TIME STEP           L**3/T
   ------------------                      ------------------------

                                     IN                                         IN
[...]
   ------------------                      ------------------------

                                     IN                                         IN
                                     --                                         --
        PRECIPITATION =        1.3351D+08          PRECIPITATION =                  
           STREAMFLOW =                               STREAMFLOW =                  
     GW BOUNDARY FLOW =           5625.58       GW BOUNDARY FLOW =              3.53


                                    OUT                                        OUT
                                    ---                                        ---
   EVAPOTRANSPIRATION =        7.3361D+07     EVAPOTRANSPIRATION =          63194.64
           STREAMFLOW =        7.2012D+07             STREAMFLOW =           6665.36
     GW BOUNDARY FLOW =          51124.04       GW BOUNDARY FLOW =             24.00

   INFLOWS - OUTFLOWS =       -1.1910D+07     INFLOWS - OUTFLOWS =         -69880.47
             --------                                   --------

 TOTAL STORAGE CHANGE =       -1.2391D+07         STORAGE CHANGE =         -69849.42
       --------------                             --------------
         LAND SURFACE =         114525.44           LAND SURFACE =          -7766.53
            SOIL ZONE =        1049020.38              SOIL ZONE =         -43569.62
     UNSATURATED ZONE =         -71845.75       UNSATURATED ZONE =         -10576.75
       SATURATED ZONE =       -1.3484D+07         SATURATED ZONE =          -7937.19

 OVERALL BUDGET ERROR =         481175.86           BUDGET ERROR =            -31.04


  PERCENT DISCREPANCY =              0.33    PERCENT DISCREPANCY =             -0.04



1
 SUMMARY VOLUMETRIC BUDGET FOR GSFLOW 
 DATE: 09 10 1995              CUMULATIVE TIME STEP:      10
 MODFLOW STRESS PERIOD     61     CURRENT TIME STEP:    1806     ITERATIONS:       7

 -----------------------------------------------------------------------------------

   CUMULATIVE VOLUMES               L**3   RATES FOR THIS TIME STEP           L**3/T
   ------------------                      ------------------------

                                     IN                                         IN
                                     --                                         --
        PRECIPITATION =        1.3351D+08          PRECIPITATION =                  
           STREAMFLOW =                               STREAMFLOW =                  
     GW BOUNDARY FLOW =           5650.65       GW BOUNDARY FLOW =              3.62


                                    OUT                                        OUT
                                    ---                                        ---
   EVAPOTRANSPIRATION =        7.3715D+07     EVAPOTRANSPIRATION =          47293.31
           STREAMFLOW =        7.2060D+07             STREAMFLOW =           6701.52
     GW BOUNDARY FLOW =          51292.19       GW BOUNDARY FLOW =             24.01

   INFLOWS - OUTFLOWS =       -1.2312D+07     INFLOWS - OUTFLOWS =         -54015.22
             --------                                   --------

 TOTAL STORAGE CHANGE =       -1.2793D+07         STORAGE CHANGE =         -53991.80
       --------------                             --------------
         LAND SURFACE =          75925.28           LAND SURFACE =          -4673.87
            SOIL ZONE =         809010.98              SOIL ZONE =         -31430.69
     UNSATURATED ZONE =        -143792.98       UNSATURATED ZONE =         -10347.00
       SATURATED ZONE =       -1.3535D+07         SATURATED ZONE =          -7540.92

 OVERALL BUDGET ERROR =         481031.24           BUDGET ERROR =            -23.42


  PERCENT DISCREPANCY =              0.33    PERCENT DISCREPANCY =             -0.04



1
 SUMMARY VOLUMETRIC BUDGET FOR GSFLOW 
 DATE: 09 17 1995              CUMULATIVE TIME STEP:      17
 MODFLOW STRESS PERIOD     61     CURRENT TIME STEP:    1813     ITERATIONS:       7

 -----------------------------------------------------------------------------------

   CUMULATIVE VOLUMES               L**3   RATES FOR THIS TIME STEP           L**3/T
   ------------------                      ------------------------

                                     IN                                         IN
                                     --                                         --
        PRECIPITATION =        1.3351D+08          PRECIPITATION =                  
           STREAMFLOW =                               STREAMFLOW =                  
     GW BOUNDARY FLOW =           5676.34       GW BOUNDARY FLOW =              3.71


                                    OUT                                        OUT
                                    ---                                        ---
   EVAPOTRANSPIRATION =        7.4096D+07     EVAPOTRANSPIRATION =          43134.13
           STREAMFLOW =        7.2100D+07             STREAMFLOW =           5877.86
     GW BOUNDARY FLOW =          51459.54       GW BOUNDARY FLOW =             23.93

   INFLOWS - OUTFLOWS =       -1.2733D+07     INFLOWS - OUTFLOWS =         -49032.21
             --------                                   --------

 TOTAL STORAGE CHANGE =       -1.3214D+07         STORAGE CHANGE =         -49009.45
       --------------                             --------------
         LAND SURFACE =          44186.49           LAND SURFACE =          -3043.17
            SOIL ZONE =         564801.52              SOIL ZONE =         -26440.59
     UNSATURATED ZONE =        -220379.75       UNSATURATED ZONE =         -10706.86
       SATURATED ZONE =       -1.3603D+07         SATURATED ZONE =          -8819.49

 OVERALL BUDGET ERROR =         480822.70           BUDGET ERROR =            -22.77


  PERCENT DISCREPANCY =              0.33    PERCENT DISCREPANCY =             -0.05



1
 SUMMARY VOLUMETRIC BUDGET FOR GSFLOW 
 DATE: 09 24 1995              CUMULATIVE TIME STEP:      24
 MODFLOW STRESS PERIOD     61     CURRENT TIME STEP:    1820     ITERATIONS:       6

 -----------------------------------------------------------------------------------

   CUMULATIVE VOLUMES               L**3   RATES FOR THIS TIME STEP           L**3/T
   ------------------                      ------------------------

                                     IN                                         IN
                                     --                                         --
        PRECIPITATION =        1.3351D+08          PRECIPITATION =                  
           STREAMFLOW =                               STREAMFLOW =                  
     GW BOUNDARY FLOW =           5702.65       GW BOUNDARY FLOW =              3.79


                                    OUT                                        OUT
                                    ---                                        ---
   EVAPOTRANSPIRATION =        7.4361D+07     EVAPOTRANSPIRATION =          27428.21
           STREAMFLOW =        7.2142D+07             STREAMFLOW =           6517.34
     GW BOUNDARY FLOW =          51627.02       GW BOUNDARY FLOW =             23.97

   INFLOWS - OUTFLOWS =       -1.3040D+07     INFLOWS - OUTFLOWS =         -33965.73
             --------                                   --------

 TOTAL STORAGE CHANGE =       -1.3521D+07         STORAGE CHANGE =         -33953.59
       --------------                             --------------
         LAND SURFACE =          28055.71           LAND SURFACE =          -1559.79
            SOIL ZONE =         409283.47              SOIL ZONE =         -15434.79
     UNSATURATED ZONE =        -292431.79       UNSATURATED ZONE =          -9215.49
       SATURATED ZONE =       -1.3666D+07         SATURATED ZONE =          -7744.19

 OVERALL BUDGET ERROR =         480675.87           BUDGET ERROR =            -12.15


  PERCENT DISCREPANCY =              0.33    PERCENT DISCREPANCY =             -0.04



1
 SUMMARY VOLUMETRIC BUDGET FOR GSFLOW 
 DATE: 10 01 1995              CUMULATIVE TIME STEP:       1
 MODFLOW STRESS PERIOD     62     CURRENT TIME STEP:    1827     ITERATIONS:       6

 -----------------------------------------------------------------------------------

   CUMULATIVE VOLUMES               L**3   RATES FOR THIS TIME STEP           L**3/T
   ------------------                      ------------------------

                                     IN                                         IN
                                     --                                         --
        PRECIPITATION =        1.3351D+08          PRECIPITATION =                  
           STREAMFLOW =                               STREAMFLOW =                  
     GW BOUNDARY FLOW =           5729.53       GW BOUNDARY FLOW =              3.87


                                    OUT                                        OUT
                                    ---                                        ---
   EVAPOTRANSPIRATION =        7.4477D+07     EVAPOTRANSPIRATION =          16758.00
           STREAMFLOW =        7.2194D+07             STREAMFLOW =           7504.45
     GW BOUNDARY FLOW =          51795.39       GW BOUNDARY FLOW =             24.06

   INFLOWS - OUTFLOWS =       -1.3208D+07     INFLOWS - OUTFLOWS =         -24282.64
             --------                                   --------

 TOTAL STORAGE CHANGE =       -1.3689D+07         STORAGE CHANGE =         -24277.35
       --------------                             --------------
         LAND SURFACE =          22241.67           LAND SURFACE =           -699.89
            SOIL ZONE =         346650.33              SOIL ZONE =          -9153.71
     UNSATURATED ZONE =        -350202.95       UNSATURATED ZONE =          -8092.76
       SATURATED ZONE =       -1.3708D+07         SATURATED ZONE =          -6331.67

 OVERALL BUDGET ERROR =         480631.52           BUDGET ERROR =             -5.29


  PERCENT DISCREPANCY =              0.33    PERCENT DISCREPANCY =             -0.02



1
 SUMMARY VOLUMETRIC BUDGET FOR GSFLOW 
 DATE: 10 08 1995              CUMULATIVE TIME STEP:       8
 MODFLOW STRESS PERIOD     62     CURRENT TIME STEP:    1834     ITERATIONS:       6

 -----------------------------------------------------------------------------------

   CUMULATIVE VOLUMES               L**3   RATES FOR THIS TIME STEP           L**3/T
   ------------------                      ------------------------

                                     IN                                         IN
                                     --                                         --
        PRECIPITATION =        1.3351D+08          PRECIPITATION =                  
           STREAMFLOW =                               STREAMFLOW =                  
     GW BOUNDARY FLOW =           5756.95       GW BOUNDARY FLOW =              3.95


                                    OUT                                        OUT
                                    ---                                        ---
   EVAPOTRANSPIRATION =        7.4600D+07     EVAPOTRANSPIRATION =          15488.47
           STREAMFLOW =        7.2245D+07             STREAMFLOW =           7409.50
     GW BOUNDARY FLOW =          51963.72       GW BOUNDARY FLOW =             24.06

   INFLOWS - OUTFLOWS =       -1.3383D+07     INFLOWS - OUTFLOWS =         -22918.08
             --------                                   --------

 TOTAL STORAGE CHANGE =       -1.3863D+07         STORAGE CHANGE =         -22912.02
       --------------                             --------------
         LAND SURFACE =          18179.43           LAND SURFACE =           -628.45
            SOIL ZONE =         279469.56              SOIL ZONE =          -8135.84
     UNSATURATED ZONE =        -404945.34       UNSATURATED ZONE =          -7462.02
       SATURATED ZONE =       -1.3756D+07         SATURATED ZONE =          -6686.38

 OVERALL BUDGET ERROR =         480574.20           BUDGET ERROR =             -6.05


  PERCENT DISCREPANCY =              0.33    PERCENT DISCREPANCY =             -0.03



1
 SUMMARY VOLUMETRIC BUDGET FOR GSFLOW 
 DATE: 10 15 1995              CUMULATIVE TIME STEP:      15
 MODFLOW STRESS PERIOD     62     CURRENT TIME STEP:    1841     ITERATIONS:       5

 -----------------------------------------------------------------------------------

   CUMULATIVE VOLUMES               L**3   RATES FOR THIS TIME STEP           L**3/T
   ------------------                      ------------------------

                                     IN                                         IN
                                     --                                         --
        PRECIPITATION =        1.3351D+08          PRECIPITATION =                  
           STREAMFLOW =                               STREAMFLOW =                  
     GW BOUNDARY FLOW =           5784.86       GW BOUNDARY FLOW =              4.02


                                    OUT                                        OUT
                                    ---                                        ---
   EVAPOTRANSPIRATION =        7.4716D+07     EVAPOTRANSPIRATION =          18078.60
           STREAMFLOW =        7.2296D+07             STREAMFLOW =           6993.73
     GW BOUNDARY FLOW =          52132.01       GW BOUNDARY FLOW =             24.03

   INFLOWS - OUTFLOWS =       -1.3549D+07     INFLOWS - OUTFLOWS =         -25092.35
             --------                                   --------

 TOTAL STORAGE CHANGE =       -1.4030D+07         STORAGE CHANGE =         -25083.92
       --------------                             --------------
         LAND SURFACE =          14037.98           LAND SURFACE =           -696.59
            SOIL ZONE =         218931.97              SOIL ZONE =          -9198.66
     UNSATURATED ZONE =        -454786.70       UNSATURATED ZONE =          -6969.69
       SATURATED ZONE =       -1.3808D+07         SATURATED ZONE =          -8219.67

 OVERALL BUDGET ERROR =         480509.14           BUDGET ERROR =             -8.42


  PERCENT DISCREPANCY =              0.33    PERCENT DISCREPANCY =             -0.03



1
 SUMMARY VOLUMETRIC BUDGET FOR GSFLOW 
 DATE: 10 22 1995              CUMULATIVE TIME STEP:      22
 MODFLOW STRESS PERIOD     62     CURRENT TIME STEP:    1848     ITERATIONS:       7

 -----------------------------------------------------------------------------------

   CUMULATIVE VOLUMES               L**3   RATES FOR THIS TIME STEP           L**3/T
   ------------------                      ------------------------

                                     IN                                         IN
                                     --                                         --
        PRECIPITATION =        1.3351D+08          PRECIPITATION =                  
           STREAMFLOW =                               STREAMFLOW =                  
     GW BOUNDARY FLOW =           5813.23       GW BOUNDARY FLOW =              4.08


                                    OUT                                        OUT
                                    ---                                        ---
   EVAPOTRANSPIRATION =        7.4819D+07     EVAPOTRANSPIRATION =           4703.17
           STREAMFLOW =        7.2346D+07             STREAMFLOW =           8157.14
     GW BOUNDARY FLOW =          52300.34       GW BOUNDARY FLOW =             24.14

   INFLOWS - OUTFLOWS =       -1.3703D+07     INFLOWS - OUTFLOWS =         -12880.37
             --------                                   --------

 TOTAL STORAGE CHANGE =       -1.4184D+07         STORAGE CHANGE =         -12881.08
       --------------                             --------------
         LAND SURFACE =          10452.79           LAND SURFACE =             -6.45
            SOIL ZONE =         168065.18              SOIL ZONE =          -2048.68
     UNSATURATED ZONE =        -501405.86       UNSATURATED ZONE =          -6192.50
       SATURATED ZONE =       -1.3861D+07         SATURATED ZONE =          -4634.12

 OVERALL BUDGET ERROR =         480455.93           BUDGET ERROR =              0.71


  PERCENT DISCREPANCY =              0.33    PERCENT DISCREPANCY =              0.01



1
 SUMMARY VOLUMETRIC BUDGET FOR GSFLOW 
 DATE: 10 29 1995              CUMULATIVE TIME STEP:      29
 MODFLOW STRESS PERIOD     62     CURRENT TIME STEP:    1855     ITERATIONS:      14

 -----------------------------------------------------------------------------------

   CUMULATIVE VOLUMES               L**3   RATES FOR THIS TIME STEP           L**3/T
   ------------------                      ------------------------

                                     IN                                         IN
                                     --                                         --
        PRECIPITATION =        1.3351D+08          PRECIPITATION =                  
           STREAMFLOW =                               STREAMFLOW =                  
     GW BOUNDARY FLOW =           5842.02       GW BOUNDARY FLOW =              4.14


                                    OUT                                        OUT
                                    ---                                        ---
   EVAPOTRANSPIRATION =        7.4885D+07     EVAPOTRANSPIRATION =          11331.75
           STREAMFLOW =        7.2400D+07             STREAMFLOW =           7499.19
     GW BOUNDARY FLOW =          52469.09       GW BOUNDARY FLOW =             24.09

   INFLOWS - OUTFLOWS =       -1.3823D+07     INFLOWS - OUTFLOWS =         -18850.88
             --------                                   --------

 TOTAL STORAGE CHANGE =       -1.4304D+07         STORAGE CHANGE =         -18844.43
       --------------                             --------------
         LAND SURFACE =           9254.98           LAND SURFACE =           -359.13
            SOIL ZONE =         138092.56              SOIL ZONE =          -5038.63
     UNSATURATED ZONE =        -545566.24       UNSATURATED ZONE =          -6240.21
       SATURATED ZONE =       -1.3906D+07         SATURATED ZONE =          -7207.13

 OVERALL BUDGET ERROR =         480429.15           BUDGET ERROR =             -6.45


  PERCENT DISCREPANCY =              0.33    PERCENT DISCREPANCY =             -0.03



 Number of time steps:   1857;  Number of non-convergence:   0
 MF iterations:         11874;  SZ iterations:           11852
 Average MF iterations:  6.39;  Average SZ iterations:    6.38
 Maximum MF iterations:    72;  Maximum SZ iterations:      50

mxsziter reached: 1

MF iteration distribution:      0    0   26  200  320  468  479  244   83   20
                                3    2    3    2    1    2    1    0    0    0
                                0    0    0    0    0    0    0    0    1    0
                                0    0    0    0    0    0    0    0    0    0
                                0    0    0    0    0    0    1    0    0    0
                                0    0    0    0    0    0    0    0    0    0
                                0    0    0    0    0    0    0    0    0    0
                                0    1    0    0    0    0    0    0    0    0

SZ computation distribution:    0    0   26  200  320  468  479  244   83   20
                                3    2    3    2    1    2    1    0    0    0
                                0    0    0    0    0    0    0    0    1    0
                                0    0    0    0    0    0    0    0    0    0
                                0    0    0    0    0    0    1    0    0    1
                                0    0    0    0    0    0    0    0    0    0
                                0    0    0    0    0    0    0    0    0    0
                                0    0    0    0    0    0    0    0    0    0

