1
 SUMMARY VOLUMETRIC BUDGET FOR GSFLOW 
 DATE: 10 07 1990              CUMULATIVE TIME STEP:       7
 MODFLOW STRESS PERIOD      2     CURRENT TIME STEP:       7     ITERATIONS:       7

 -----------------------------------------------------------------------------------

   CUMULATIVE VOLUMES               L**3   RATES FOR THIS TIME STEP           L**3/T
   ------------------                      ------------------------

                                     IN                                         IN
                                     --                                         --
        PRECIPITATION =                            PRECIPITATION =                  
           STREAMFLOW =                               STREAMFLOW =                  
     GW BOUNDARY FLOW =                         GW BOUNDARY FLOW =                  


                                    OUT                                        OUT
                                    ---                                        ---
   EVAPOTRANSPIRATION =         385017.45     EVAPOTRANSPIRATION =          11800.90
           STREAMFLOW =          45655.17             STREAMFLOW =           8128.06
     GW BOUNDARY FLOW =            252.78       GW BOUNDARY FLOW =             36.30

   INFLOWS - OUTFLOWS =        -430925.40     INFLOWS - OUTFLOWS =         -19965.26
             --------                                   --------

 TOTAL STORAGE CHANGE =        -429458.71         STORAGE CHANGE =         -19940.97
       --------------                             --------------
         LAND SURFACE =                             LAND SURFACE =                  
            SOIL ZONE =         -33378.24              SOIL ZONE =           -943.72
     UNSATURATED ZONE =        -502849.10       UNSATURATED ZONE =         -33588.96
       SATURATED ZONE =         106768.62         SATURATED ZONE =          14591.71

 OVERALL BUDGET ERROR =          -1466.68           BUDGET ERROR =            -24.30


  PERCENT DISCREPANCY =             -0.34    PERCENT DISCREPANCY =             -0.12



1
 SUMMARY VOLUMETRIC BUDGET FOR GSFLOW 
 DATE: 10 14 1990              CUMULATIVE TIME STEP:      14
 MODFLOW STRESS PERIOD      2     CURRENT TIME STEP:      14     ITERATIONS:       6

 -----------------------------------------------------------------------------------

   CUMULATIVE VOLUMES               L**3   RATES FOR THIS TIME STEP           L**3/T
   ------------------                      ------------------------

                                     IN                                         IN
                                     --                                         --
        PRECIPITATION =                            PRECIPITATION =                  
           STREAMFLOW =                               STREAMFLOW =                  
     GW BOUNDARY FLOW =                         GW BOUNDARY FLOW =                  


                                    OUT                                        OUT
                                    ---                                        ---
   EVAPOTRANSPIRATION =         665207.98     EVAPOTRANSPIRATION =          42295.86
           STREAMFLOW =         100358.18             STREAMFLOW =           7412.26
     GW BOUNDARY FLOW =            506.61       GW BOUNDARY FLOW =             36.24

   INFLOWS - OUTFLOWS =        -766072.78     INFLOWS - OUTFLOWS =         -49744.36
             --------                                   --------

 TOTAL STORAGE CHANGE =        -764337.46         STORAGE CHANGE =         -49725.83
       --------------                             --------------
         LAND SURFACE =                             LAND SURFACE =                  
            SOIL ZONE =         -58187.22              SOIL ZONE =          -4381.89
     UNSATURATED ZONE =        -877882.64       UNSATURATED ZONE =         -52087.30
       SATURATED ZONE =         171732.40         SATURATED ZONE =           6743.36

 OVERALL BUDGET ERROR =          -1735.32           BUDGET ERROR =            -18.53


  PERCENT DISCREPANCY =             -0.23    PERCENT DISCREPANCY =             -0.04



1
 SUMMARY VOLUMETRIC BUDGET FOR GSFLOW 
 DATE: 10 21 1990              CUMULATIVE TIME STEP:      21
 MODFLOW STRESS PERIOD      2     CURRENT TIME STEP:      21     ITERATIONS:       6

 -----------------------------------------------------------------------------------

   CUMULATIVE VOLUMES               L**3   RATES FOR THIS TIME STEP           L**3/T
   ------------------                      ------------------------

                                     IN                                         IN
                                     --                                         --
        PRECIPITATION =         188432.87          PRECIPITATION =                  
           STREAMFLOW =                               STREAMFLOW =                  
     GW BOUNDARY FLOW =                         GW BOUNDARY FLOW =                  


                                    OUT                                        OUT
                                    ---                                        ---
   EVAPOTRANSPIRATION =         815450.66     EVAPOTRANSPIRATION =          41709.13
           STREAMFLOW =         163120.11             STREAMFLOW =          10149.58
     GW BOUNDARY FLOW =            760.80       GW BOUNDARY FLOW =             36.37

   INFLOWS - OUTFLOWS =        -790898.69     INFLOWS - OUTFLOWS =         -51895.09
             --------                                   --------

 TOTAL STORAGE CHANGE =        -790377.48         STORAGE CHANGE =         -51903.38
       --------------                             --------------
         LAND SURFACE =          18885.57           LAND SURFACE =         -43558.49
            SOIL ZONE =          47359.14              SOIL ZONE =           2013.32
     UNSATURATED ZONE =       -1091648.08       UNSATURATED ZONE =         -21329.79
       SATURATED ZONE =         235025.89         SATURATED ZONE =          10971.59

 OVERALL BUDGET ERROR =           -521.21           BUDGET ERROR =              8.29


  PERCENT DISCREPANCY =             -0.05    PERCENT DISCREPANCY =              0.02



1
 SUMMARY VOLUMETRIC BUDGET FOR GSFLOW 
 DATE: 10 28 1990              CUMULATIVE TIME STEP:      28
 MODFLOW STRESS PERIOD      2     CURRENT TIME STEP:      28     ITERATIONS:       6

 -----------------------------------------------------------------------------------

   CUMULATIVE VOLUMES               L**3   RATES FOR THIS TIME STEP           L**3/T
   ------------------                      ------------------------

                                     IN                                         IN
                                     --                                         --
        PRECIPITATION =         188432.87          PRECIPITATION =                  
           STREAMFLOW =                               STREAMFLOW =                  
     GW BOUNDARY FLOW =                         GW BOUNDARY FLOW =                  


                                    OUT                                        OUT
                                    ---                                        ---
   EVAPOTRANSPIRATION =         943813.19     EVAPOTRANSPIRATION =          11827.29
           STREAMFLOW =         224550.56             STREAMFLOW =           8919.81
     GW BOUNDARY FLOW =           1013.98       GW BOUNDARY FLOW =             36.12

   INFLOWS - OUTFLOWS =        -980944.87     INFLOWS - OUTFLOWS =         -20783.22
             --------                                   --------

 TOTAL STORAGE CHANGE =        -980411.75         STORAGE CHANGE =         -20783.61
       --------------                             --------------
         LAND SURFACE =                             LAND SURFACE =                  
            SOIL ZONE =          18311.67              SOIL ZONE =          -3430.58
     UNSATURATED ZONE =       -1275026.66       UNSATURATED ZONE =         -23236.79
       SATURATED ZONE =         276303.23         SATURATED ZONE =           5883.76

 OVERALL BUDGET ERROR =           -533.12           BUDGET ERROR =              0.38


  PERCENT DISCREPANCY =             -0.05    PERCENT DISCREPANCY =              0.00



1
 SUMMARY VOLUMETRIC BUDGET FOR GSFLOW 
 DATE: 11 04 1990              CUMULATIVE TIME STEP:       4
 MODFLOW STRESS PERIOD      3     CURRENT TIME STEP:      35     ITERATIONS:       6

 -----------------------------------------------------------------------------------

   CUMULATIVE VOLUMES               L**3   RATES FOR THIS TIME STEP           L**3/T
   ------------------                      ------------------------

                                     IN                                         IN
                                     --                                         --
        PRECIPITATION =         703113.06          PRECIPITATION =                  
           STREAMFLOW =                               STREAMFLOW =                  
     GW BOUNDARY FLOW =                         GW BOUNDARY FLOW =                  


                                    OUT                                        OUT
                                    ---                                        ---
   EVAPOTRANSPIRATION =        1004387.21     EVAPOTRANSPIRATION =          26278.40
           STREAMFLOW =         295133.67             STREAMFLOW =          10647.46
     GW BOUNDARY FLOW =           1267.03       GW BOUNDARY FLOW =             36.14

   INFLOWS - OUTFLOWS =        -597674.85     INFLOWS - OUTFLOWS =         -36962.00
             --------                                   --------

 TOTAL STORAGE CHANGE =        -602148.65         STORAGE CHANGE =         -38206.96
       --------------                             --------------
         LAND SURFACE =         132159.65           LAND SURFACE =        -160480.33
            SOIL ZONE =         350127.68              SOIL ZONE =         132919.43
     UNSATURATED ZONE =       -1420516.48       UNSATURATED ZONE =         -20040.36
       SATURATED ZONE =         336080.49         SATURATED ZONE =           9394.31

 OVERALL BUDGET ERROR =           4473.80           BUDGET ERROR =           1244.96

  ***WARNING, FLUX RATES OFF > 3%

  PERCENT DISCREPANCY =              0.34    PERCENT DISCREPANCY =              3.31



1
 SUMMARY VOLUMETRIC BUDGET FOR GSFLOW 
 DATE: 11 11 1990              CUMULATIVE TIME STEP:      11
 MODFLOW STRESS PERIOD      3     CURRENT TIME STEP:      42     ITERATIONS:       6

 -----------------------------------------------------------------------------------

   CUMULATIVE VOLUMES               L**3   RATES FOR THIS TIME STEP           L**3/T
   ------------------                      ------------------------

                                     IN                                         IN
                                     --                                         --
        PRECIPITATION =         703113.06          PRECIPITATION =                  
           STREAMFLOW =                               STREAMFLOW =                  
     GW BOUNDARY FLOW =                         GW BOUNDARY FLOW =                  


                                    OUT                                        OUT
                                    ---                                        ---
   EVAPOTRANSPIRATION =        1081489.29     EVAPOTRANSPIRATION =          12121.16
           STREAMFLOW =         366187.57             STREAMFLOW =           9643.45
     GW BOUNDARY FLOW =           1519.13       GW BOUNDARY FLOW =             35.92

   INFLOWS - OUTFLOWS =        -746082.92     INFLOWS - OUTFLOWS =         -21800.54
             --------                                   --------

 TOTAL STORAGE CHANGE =        -750732.42         STORAGE CHANGE =         -21799.12
       --------------                             --------------
         LAND SURFACE =            595.09           LAND SURFACE =          -1416.54
            SOIL ZONE =         422410.09              SOIL ZONE =          -5417.42
     UNSATURATED ZONE =       -1559565.39       UNSATURATED ZONE =         -19842.96
       SATURATED ZONE =         385827.75         SATURATED ZONE =           4877.79

 OVERALL BUDGET ERROR =           4649.50           BUDGET ERROR =             -1.41


  PERCENT DISCREPANCY =              0.32    PERCENT DISCREPANCY =             -0.01



1
 SUMMARY VOLUMETRIC BUDGET FOR GSFLOW 
 DATE: 11 18 1990              CUMULATIVE TIME STEP:      18
 MODFLOW STRESS PERIOD      3     CURRENT TIME STEP:      49     ITERATIONS:       6

 -----------------------------------------------------------------------------------

   CUMULATIVE VOLUMES               L**3   RATES FOR THIS TIME STEP           L**3/T
   ------------------                      ------------------------

                                     IN                                         IN
                                     --                                         --
        PRECIPITATION =         747883.35          PRECIPITATION =                  
           STREAMFLOW =                               STREAMFLOW =                  
     GW BOUNDARY FLOW =                         GW BOUNDARY FLOW =                  


                                    OUT                                        OUT
                                    ---                                        ---
   EVAPOTRANSPIRATION =        1153868.30     EVAPOTRANSPIRATION =           5051.87
           STREAMFLOW =         437900.59             STREAMFLOW =          10675.60
     GW BOUNDARY FLOW =           1770.44       GW BOUNDARY FLOW =             35.88

   INFLOWS - OUTFLOWS =        -845655.98     INFLOWS - OUTFLOWS =         -15763.35
             --------                                   --------

 TOTAL STORAGE CHANGE =        -850339.22         STORAGE CHANGE =         -15774.27
       --------------                             --------------
         LAND SURFACE =           7868.08           LAND SURFACE =          -3691.47
            SOIL ZONE =         404487.46              SOIL ZONE =           -745.08
     UNSATURATED ZONE =       -1692695.77       UNSATURATED ZONE =         -18605.72
       SATURATED ZONE =         430000.96         SATURATED ZONE =           7267.99

 OVERALL BUDGET ERROR =           4683.24           BUDGET ERROR =             10.92


  PERCENT DISCREPANCY =              0.29    PERCENT DISCREPANCY =              0.07



1
 SUMMARY VOLUMETRIC BUDGET FOR GSFLOW 
 DATE: 11 25 1990              CUMULATIVE TIME STEP:      25
 MODFLOW STRESS PERIOD      3     CURRENT TIME STEP:      56     ITERATIONS:       6

 -----------------------------------------------------------------------------------

   CUMULATIVE VOLUMES               L**3   RATES FOR THIS TIME STEP           L**3/T
   ------------------                      ------------------------

                                     IN                                         IN
                                     --                                         --
        PRECIPITATION =        1009043.38          PRECIPITATION =         186542.88
           STREAMFLOW =                               STREAMFLOW =                  
     GW BOUNDARY FLOW =                         GW BOUNDARY FLOW =                  


                                    OUT                                        OUT
                                    ---                                        ---
   EVAPOTRANSPIRATION =        1214289.09     EVAPOTRANSPIRATION =           3754.59
           STREAMFLOW =         513926.32             STREAMFLOW =          10877.49
     GW BOUNDARY FLOW =           2021.39       GW BOUNDARY FLOW =             35.79

   INFLOWS - OUTFLOWS =        -721193.42     INFLOWS - OUTFLOWS =         171875.00
             --------                                   --------

 TOTAL STORAGE CHANGE =        -728023.25         STORAGE CHANGE =         170020.29
       --------------                             --------------
         LAND SURFACE =          86180.68           LAND SURFACE =          69567.13
            SOIL ZONE =         526594.64              SOIL ZONE =         112086.52
     UNSATURATED ZONE =       -1820272.77       UNSATURATED ZONE =         -17908.30
       SATURATED ZONE =         479474.13         SATURATED ZONE =           6274.93

 OVERALL BUDGET ERROR =           6829.84           BUDGET ERROR =           1854.71


  PERCENT DISCREPANCY =              0.39    PERCENT DISCREPANCY =              1.00



1
 SUMMARY VOLUMETRIC BUDGET FOR GSFLOW 
 DATE: 12 02 1990              CUMULATIVE TIME STEP:       2
 MODFLOW STRESS PERIOD      4     CURRENT TIME STEP:      63     ITERATIONS:       6

 -----------------------------------------------------------------------------------

   CUMULATIVE VOLUMES               L**3   RATES FOR THIS TIME STEP           L**3/T
   ------------------                      ------------------------

                                     IN                                         IN
                                     --                                         --
        PRECIPITATION =        1449284.55          PRECIPITATION =                  
           STREAMFLOW =                               STREAMFLOW =                  
     GW BOUNDARY FLOW =                         GW BOUNDARY FLOW =                  


                                    OUT                                        OUT
                                    ---                                        ---
   EVAPOTRANSPIRATION =        1220784.73     EVAPOTRANSPIRATION =            234.69
           STREAMFLOW =         591165.85             STREAMFLOW =          11079.43
     GW BOUNDARY FLOW =           2271.88       GW BOUNDARY FLOW =             35.77

   INFLOWS - OUTFLOWS =        -364937.90     INFLOWS - OUTFLOWS =         -11349.89
             --------                                   --------

 TOTAL STORAGE CHANGE =        -372886.94         STORAGE CHANGE =         -11362.65
       --------------                             --------------
         LAND SURFACE =         486845.62           LAND SURFACE =           -339.04
            SOIL ZONE =         558864.82              SOIL ZONE =            143.95
     UNSATURATED ZONE =       -1943124.17       UNSATURATED ZONE =         -17255.74
       SATURATED ZONE =         524526.69         SATURATED ZONE =           6088.18

 OVERALL BUDGET ERROR =           7949.04           BUDGET ERROR =             12.76


  PERCENT DISCREPANCY =              0.44    PERCENT DISCREPANCY =              0.11



1
 SUMMARY VOLUMETRIC BUDGET FOR GSFLOW 
 DATE: 12 09 1990              CUMULATIVE TIME STEP:       9
 MODFLOW STRESS PERIOD      4     CURRENT TIME STEP:      70     ITERATIONS:       6

 -----------------------------------------------------------------------------------

   CUMULATIVE VOLUMES               L**3   RATES FOR THIS TIME STEP           L**3/T
   ------------------                      ------------------------

                                     IN                                         IN
                                     --                                         --
        PRECIPITATION =        1449284.55          PRECIPITATION =                  
           STREAMFLOW =                               STREAMFLOW =                  
     GW BOUNDARY FLOW =                         GW BOUNDARY FLOW =                  


                                    OUT                                        OUT
                                    ---                                        ---
   EVAPOTRANSPIRATION =        1296593.27     EVAPOTRANSPIRATION =          13836.64
           STREAMFLOW =         668948.43             STREAMFLOW =          10921.65
     GW BOUNDARY FLOW =           2521.84       GW BOUNDARY FLOW =             35.65

   INFLOWS - OUTFLOWS =        -518778.99     INFLOWS - OUTFLOWS =         -24793.93
             --------                                   --------

 TOTAL STORAGE CHANGE =        -531184.47         STORAGE CHANGE =         -24916.12
       --------------                             --------------
         LAND SURFACE =          67215.41           LAND SURFACE =         -45889.70
            SOIL ZONE =         901404.44              SOIL ZONE =          33527.21
     UNSATURATED ZONE =       -2060927.98       UNSATURATED ZONE =         -16486.74
       SATURATED ZONE =         561123.54         SATURATED ZONE =           3933.10

 OVERALL BUDGET ERROR =          12405.48           BUDGET ERROR =            122.19


  PERCENT DISCREPANCY =              0.63    PERCENT DISCREPANCY =              0.49



1
 SUMMARY VOLUMETRIC BUDGET FOR GSFLOW 
 DATE: 12 16 1990              CUMULATIVE TIME STEP:      16
 MODFLOW STRESS PERIOD      4     CURRENT TIME STEP:      77     ITERATIONS:       5

 -----------------------------------------------------------------------------------

   CUMULATIVE VOLUMES               L**3   RATES FOR THIS TIME STEP           L**3/T
   ------------------                      ------------------------

                                     IN                                         IN
                                     --                                         --
        PRECIPITATION =        1804962.84          PRECIPITATION =                  
           STREAMFLOW =                               STREAMFLOW =                  
     GW BOUNDARY FLOW =                         GW BOUNDARY FLOW =                  


                                    OUT                                        OUT
                                    ---                                        ---
   EVAPOTRANSPIRATION =        1324850.55     EVAPOTRANSPIRATION =                  
           STREAMFLOW =         748660.81             STREAMFLOW =          11517.60
     GW BOUNDARY FLOW =           2771.25       GW BOUNDARY FLOW =             35.61

   INFLOWS - OUTFLOWS =        -271319.77     INFLOWS - OUTFLOWS =         -11553.21
             --------                                   --------

 TOTAL STORAGE CHANGE =        -286023.70         STORAGE CHANGE =         -11568.61
       --------------                             --------------
         LAND SURFACE =         252566.26           LAND SURFACE =                  
            SOIL ZONE =        1043832.65              SOIL ZONE =            -29.64
     UNSATURATED ZONE =       -2174262.80       UNSATURATED ZONE =         -15930.15
       SATURATED ZONE =         591840.02         SATURATED ZONE =           4391.17

 OVERALL BUDGET ERROR =          14703.94           BUDGET ERROR =             15.40


  PERCENT DISCREPANCY =              0.71    PERCENT DISCREPANCY =              0.13



1
 SUMMARY VOLUMETRIC BUDGET FOR GSFLOW 
 DATE: 12 23 1990              CUMULATIVE TIME STEP:      23
 MODFLOW STRESS PERIOD      4     CURRENT TIME STEP:      84     ITERATIONS:       6

 -----------------------------------------------------------------------------------

   CUMULATIVE VOLUMES               L**3   RATES FOR THIS TIME STEP           L**3/T
   ------------------                      ------------------------

                                     IN                                         IN
                                     --                                         --
        PRECIPITATION =        2276236.55          PRECIPITATION =                  
           STREAMFLOW =                               STREAMFLOW =                  
     GW BOUNDARY FLOW =              0.08       GW BOUNDARY FLOW =              0.04


                                    OUT                                        OUT
                                    ---                                        ---
   EVAPOTRANSPIRATION =        1325908.14     EVAPOTRANSPIRATION =                  
           STREAMFLOW =         829481.92             STREAMFLOW =          11566.39
     GW BOUNDARY FLOW =           3020.28       GW BOUNDARY FLOW =             35.57

   INFLOWS - OUTFLOWS =         117826.28     INFLOWS - OUTFLOWS =         -11601.92
             --------                                   --------

 TOTAL STORAGE CHANGE =         103029.54         STORAGE CHANGE =         -11613.95
       --------------                             --------------
         LAND SURFACE =         722784.34           LAND SURFACE =                  
            SOIL ZONE =        1043970.65              SOIL ZONE =             49.27
     UNSATURATED ZONE =       -2283468.60       UNSATURATED ZONE =         -15356.50
       SATURATED ZONE =         619742.96         SATURATED ZONE =           3693.27

 OVERALL BUDGET ERROR =          14796.74           BUDGET ERROR =             12.03


  PERCENT DISCREPANCY =              0.65    PERCENT DISCREPANCY =              0.10



1
 SUMMARY VOLUMETRIC BUDGET FOR GSFLOW 
 DATE: 12 30 1990              CUMULATIVE TIME STEP:      30
 MODFLOW STRESS PERIOD      4     CURRENT TIME STEP:      91     ITERATIONS:       5

 -----------------------------------------------------------------------------------

   CUMULATIVE VOLUMES               L**3   RATES FOR THIS TIME STEP           L**3/T
   ------------------                      ------------------------

                                     IN                                         IN
                                     --                                         --
        PRECIPITATION =        2276236.55          PRECIPITATION =                  
           STREAMFLOW =                               STREAMFLOW =                  
     GW BOUNDARY FLOW =              0.77       GW BOUNDARY FLOW =              0.14


                                    OUT                                        OUT
                                    ---                                        ---
   EVAPOTRANSPIRATION =        1326475.65     EVAPOTRANSPIRATION =                  
           STREAMFLOW =         910714.45             STREAMFLOW =          11637.27
     GW BOUNDARY FLOW =           3269.39       GW BOUNDARY FLOW =             35.60

   INFLOWS - OUTFLOWS =          35777.83     INFLOWS - OUTFLOWS =         -11672.73
             --------                                   --------

 TOTAL STORAGE CHANGE =          20904.93         STORAGE CHANGE =         -11682.77
       --------------                             --------------
         LAND SURFACE =         722216.94           LAND SURFACE =                  
            SOIL ZONE =        1044515.61              SOIL ZONE =             96.85
     UNSATURATED ZONE =       -2388759.45       UNSATURATED ZONE =         -14807.41
       SATURATED ZONE =         642931.60         SATURATED ZONE =           3027.79

 OVERALL BUDGET ERROR =          14872.90           BUDGET ERROR =             10.03


  PERCENT DISCREPANCY =              0.66    PERCENT DISCREPANCY =              0.09



1
 SUMMARY VOLUMETRIC BUDGET FOR GSFLOW 
 DATE: 01 06 1991              CUMULATIVE TIME STEP:       6
 MODFLOW STRESS PERIOD      5     CURRENT TIME STEP:      98     ITERATIONS:       5

 -----------------------------------------------------------------------------------

   CUMULATIVE VOLUMES               L**3   RATES FOR THIS TIME STEP           L**3/T
   ------------------                      ------------------------

                                     IN                                         IN
                                     --                                         --
        PRECIPITATION =        2276236.55          PRECIPITATION =                  
           STREAMFLOW =                               STREAMFLOW =                  
     GW BOUNDARY FLOW =              2.09       GW BOUNDARY FLOW =              0.22


                                    OUT                                        OUT
                                    ---                                        ---
   EVAPOTRANSPIRATION =        1353476.62     EVAPOTRANSPIRATION =           3180.55
           STREAMFLOW =         992622.18             STREAMFLOW =          11741.65
     GW BOUNDARY FLOW =           3519.28       GW BOUNDARY FLOW =             35.75

   INFLOWS - OUTFLOWS =         -73379.43     INFLOWS - OUTFLOWS =         -14957.73
             --------                                   --------

 TOTAL STORAGE CHANGE =         -90818.50         STORAGE CHANGE =         -15094.11
       --------------                             --------------
         LAND SURFACE =         592099.77           LAND SURFACE =          -8106.31
            SOIL ZONE =        1145781.60              SOIL ZONE =           4883.90
     UNSATURATED ZONE =       -2490103.02       UNSATURATED ZONE =         -14246.17
       SATURATED ZONE =         661402.88         SATURATED ZONE =           2374.45

 OVERALL BUDGET ERROR =          17439.07           BUDGET ERROR =            136.38


  PERCENT DISCREPANCY =              0.74    PERCENT DISCREPANCY =              0.91



1
 SUMMARY VOLUMETRIC BUDGET FOR GSFLOW 
 DATE: 01 13 1991              CUMULATIVE TIME STEP:      13
 MODFLOW STRESS PERIOD      5     CURRENT TIME STEP:     105     ITERATIONS:       6

 -----------------------------------------------------------------------------------

   CUMULATIVE VOLUMES               L**3   RATES FOR THIS TIME STEP           L**3/T
   ------------------                      ------------------------

                                     IN                                         IN
                                     --                                         --
        PRECIPITATION =        2596386.94          PRECIPITATION =          10327.43
           STREAMFLOW =                               STREAMFLOW =                  
     GW BOUNDARY FLOW =              4.01       GW BOUNDARY FLOW =              0.31


                                    OUT                                        OUT
                                    ---                                        ---
   EVAPOTRANSPIRATION =        1420263.10     EVAPOTRANSPIRATION =          18625.54
           STREAMFLOW =        1074978.65             STREAMFLOW =          11743.80
     GW BOUNDARY FLOW =           3769.50       GW BOUNDARY FLOW =             35.73

   INFLOWS - OUTFLOWS =          97379.71     INFLOWS - OUTFLOWS =         -20077.32
             --------                                   --------

 TOTAL STORAGE CHANGE =          74950.69         STORAGE CHANGE =         -21303.29
       --------------                             --------------
         LAND SURFACE =         529885.07           LAND SURFACE =        -135264.71
            SOIL ZONE =        1458159.23              SOIL ZONE =         126527.60
     UNSATURATED ZONE =       -2587371.01       UNSATURATED ZONE =         -13691.09
       SATURATED ZONE =         674277.07         SATURATED ZONE =           1124.90

 OVERALL BUDGET ERROR =          22429.02           BUDGET ERROR =           1225.97

  ***WARNING, FLUX RATES OFF > 3%

  PERCENT DISCREPANCY =              0.87    PERCENT DISCREPANCY =              3.95



1
 SUMMARY VOLUMETRIC BUDGET FOR GSFLOW 
 DATE: 01 20 1991              CUMULATIVE TIME STEP:      20
 MODFLOW STRESS PERIOD      5     CURRENT TIME STEP:     112     ITERATIONS:       5

 -----------------------------------------------------------------------------------

   CUMULATIVE VOLUMES               L**3   RATES FOR THIS TIME STEP           L**3/T
   ------------------                      ------------------------

                                     IN                                         IN
                                     --                                         --
        PRECIPITATION =        2596386.94          PRECIPITATION =                  
           STREAMFLOW =                               STREAMFLOW =                  
     GW BOUNDARY FLOW =              6.54       GW BOUNDARY FLOW =              0.40


                                    OUT                                        OUT
                                    ---                                        ---
   EVAPOTRANSPIRATION =        1497355.85     EVAPOTRANSPIRATION =           2453.34
           STREAMFLOW =        1158159.77             STREAMFLOW =          11901.04
     GW BOUNDARY FLOW =           4019.72       GW BOUNDARY FLOW =             35.74

   INFLOWS - OUTFLOWS =         -63141.86     INFLOWS - OUTFLOWS =         -14389.73
             --------                                   --------

 TOTAL STORAGE CHANGE =         -86585.63         STORAGE CHANGE =         -14397.90
       --------------                             --------------
         LAND SURFACE =         356897.60           LAND SURFACE =           -433.81
            SOIL ZONE =        1553743.52              SOIL ZONE =          -1968.34
     UNSATURATED ZONE =       -2680766.94       UNSATURATED ZONE =         -13123.80
       SATURATED ZONE =         683539.81         SATURATED ZONE =           1128.03

 OVERALL BUDGET ERROR =          23443.77           BUDGET ERROR =              8.17


  PERCENT DISCREPANCY =              0.88    PERCENT DISCREPANCY =              0.06



1
 SUMMARY VOLUMETRIC BUDGET FOR GSFLOW 
 DATE: 01 27 1991              CUMULATIVE TIME STEP:      27
 MODFLOW STRESS PERIOD      5     CURRENT TIME STEP:     119     ITERATIONS:       5

 -----------------------------------------------------------------------------------

   CUMULATIVE VOLUMES               L**3   RATES FOR THIS TIME STEP           L**3/T
   ------------------                      ------------------------

                                     IN                                         IN
                                     --                                         --
        PRECIPITATION =        2596386.94          PRECIPITATION =                  
           STREAMFLOW =                               STREAMFLOW =                  
     GW BOUNDARY FLOW =              9.65       GW BOUNDARY FLOW =              0.48


                                    OUT                                        OUT
                                    ---                                        ---
   EVAPOTRANSPIRATION =        1523216.22     EVAPOTRANSPIRATION =           1702.43
           STREAMFLOW =        1241409.77             STREAMFLOW =          11918.46
     GW BOUNDARY FLOW =           4269.89       GW BOUNDARY FLOW =             35.74

   INFLOWS - OUTFLOWS =        -172499.29     INFLOWS - OUTFLOWS =         -13656.15
             --------                                   --------

 TOTAL STORAGE CHANGE =        -196198.11         STORAGE CHANGE =         -13668.91
       --------------                             --------------
         LAND SURFACE =         323033.09           LAND SURFACE =           -547.84
            SOIL ZONE =        1562440.47              SOIL ZONE =          -1062.80
     UNSATURATED ZONE =       -2770691.67       UNSATURATED ZONE =         -12629.25
       SATURATED ZONE =         689019.56         SATURATED ZONE =            570.98

 OVERALL BUDGET ERROR =          23698.83           BUDGET ERROR =             12.76


  PERCENT DISCREPANCY =              0.85    PERCENT DISCREPANCY =              0.09



1
 SUMMARY VOLUMETRIC BUDGET FOR GSFLOW 
 DATE: 02 03 1991              CUMULATIVE TIME STEP:       3
 MODFLOW STRESS PERIOD      6     CURRENT TIME STEP:     126     ITERATIONS:       6

 -----------------------------------------------------------------------------------

   CUMULATIVE VOLUMES               L**3   RATES FOR THIS TIME STEP           L**3/T
   ------------------                      ------------------------

                                     IN                                         IN
                                     --                                         --
        PRECIPITATION =        3228422.31          PRECIPITATION =          30459.53
           STREAMFLOW =                               STREAMFLOW =                  
     GW BOUNDARY FLOW =             13.31       GW BOUNDARY FLOW =              0.55


                                    OUT                                        OUT
                                    ---                                        ---
   EVAPOTRANSPIRATION =        1630183.74     EVAPOTRANSPIRATION =          21403.91
           STREAMFLOW =        1326205.95             STREAMFLOW =          12233.07
     GW BOUNDARY FLOW =           4519.99       GW BOUNDARY FLOW =             35.74

   INFLOWS - OUTFLOWS =         267525.94     INFLOWS - OUTFLOWS =          -3212.63
             --------                                   --------

 TOTAL STORAGE CHANGE =         236803.20         STORAGE CHANGE =          -3489.93
       --------------                             --------------
         LAND SURFACE =         157683.43           LAND SURFACE =         -26376.35
            SOIL ZONE =        2246279.26              SOIL ZONE =          35083.87
     UNSATURATED ZONE =       -2857300.00       UNSATURATED ZONE =         -12195.79
       SATURATED ZONE =         690140.00         SATURATED ZONE =             -1.67

 OVERALL BUDGET ERROR =          30722.74           BUDGET ERROR =            277.31


  PERCENT DISCREPANCY =              0.96    PERCENT DISCREPANCY =              0.82



1
 SUMMARY VOLUMETRIC BUDGET FOR GSFLOW 
 DATE: 02 10 1991              CUMULATIVE TIME STEP:      10
 MODFLOW STRESS PERIOD      6     CURRENT TIME STEP:     133     ITERATIONS:       5

 -----------------------------------------------------------------------------------

   CUMULATIVE VOLUMES               L**3   RATES FOR THIS TIME STEP           L**3/T
   ------------------                      ------------------------

                                     IN                                         IN
                                     --                                         --
        PRECIPITATION =        3510173.01          PRECIPITATION =                  
           STREAMFLOW =                               STREAMFLOW =                  
     GW BOUNDARY FLOW =             17.48       GW BOUNDARY FLOW =              0.63


                                    OUT                                        OUT
                                    ---                                        ---
   EVAPOTRANSPIRATION =        1797534.69     EVAPOTRANSPIRATION =          25636.14
           STREAMFLOW =        1412112.14             STREAMFLOW =          12113.38
     GW BOUNDARY FLOW =           4770.07       GW BOUNDARY FLOW =             35.72

   INFLOWS - OUTFLOWS =         295773.59     INFLOWS - OUTFLOWS =         -37784.61
             --------                                   --------

 TOTAL STORAGE CHANGE =         262063.59         STORAGE CHANGE =         -37738.94
       --------------                             --------------
         LAND SURFACE =          75877.11           LAND SURFACE =          -8469.89
            SOIL ZONE =        2438317.52              SOIL ZONE =         -17072.19
     UNSATURATED ZONE =       -2940457.05       UNSATURATED ZONE =         -11682.16
       SATURATED ZONE =         688325.41         SATURATED ZONE =           -514.72

 OVERALL BUDGET ERROR =          33710.00           BUDGET ERROR =            -45.67


  PERCENT DISCREPANCY =              0.96    PERCENT DISCREPANCY =             -0.12



1
 SUMMARY VOLUMETRIC BUDGET FOR GSFLOW 
 DATE: 02 17 1991              CUMULATIVE TIME STEP:      17
 MODFLOW STRESS PERIOD      6     CURRENT TIME STEP:     140     ITERATIONS:       5

 -----------------------------------------------------------------------------------

   CUMULATIVE VOLUMES               L**3   RATES FOR THIS TIME STEP           L**3/T
   ------------------                      ------------------------

                                     IN                                         IN
                                     --                                         --
        PRECIPITATION =        3510173.01          PRECIPITATION =                  
           STREAMFLOW =                               STREAMFLOW =                  
     GW BOUNDARY FLOW =             22.16       GW BOUNDARY FLOW =              0.70


                                    OUT                                        OUT
                                    ---                                        ---
   EVAPOTRANSPIRATION =        2040427.94     EVAPOTRANSPIRATION =          23705.69
           STREAMFLOW =        1496405.37             STREAMFLOW =          12043.63
     GW BOUNDARY FLOW =           5019.99       GW BOUNDARY FLOW =             35.67

   INFLOWS - OUTFLOWS =         -31658.13     INFLOWS - OUTFLOWS =         -35784.30
             --------                                   --------

 TOTAL STORAGE CHANGE =         -64749.28         STORAGE CHANGE =         -35707.97
       --------------                             --------------
         LAND SURFACE =          17890.99           LAND SURFACE =          -1143.67
            SOIL ZONE =        2254892.75              SOIL ZONE =         -22426.58
     UNSATURATED ZONE =       -3020027.36       UNSATURATED ZONE =         -11086.19
       SATURATED ZONE =         682493.67         SATURATED ZONE =          -1051.55

 OVERALL BUDGET ERROR =          33091.15           BUDGET ERROR =            -76.33


  PERCENT DISCREPANCY =              0.93    PERCENT DISCREPANCY =             -0.21



1
 SUMMARY VOLUMETRIC BUDGET FOR GSFLOW 
 DATE: 02 24 1991              CUMULATIVE TIME STEP:      24
 MODFLOW STRESS PERIOD      6     CURRENT TIME STEP:     147     ITERATIONS:       5

 -----------------------------------------------------------------------------------

   CUMULATIVE VOLUMES               L**3   RATES FOR THIS TIME STEP           L**3/T
   ------------------                      ------------------------

                                     IN                                         IN
                                     --                                         --
        PRECIPITATION =        3510173.01          PRECIPITATION =                  
           STREAMFLOW =                               STREAMFLOW =                  
     GW BOUNDARY FLOW =             27.30       GW BOUNDARY FLOW =              0.76


                                    OUT                                        OUT
                                    ---                                        ---
   EVAPOTRANSPIRATION =        2253870.72     EVAPOTRANSPIRATION =          21630.99
           STREAMFLOW =        1580118.64             STREAMFLOW =          11932.79
     GW BOUNDARY FLOW =           5268.90       GW BOUNDARY FLOW =             35.48

   INFLOWS - OUTFLOWS =        -329057.95     INFLOWS - OUTFLOWS =         -33598.50
             --------                                   --------

 TOTAL STORAGE CHANGE =        -361442.62         STORAGE CHANGE =         -33524.40
       --------------                             --------------
         LAND SURFACE =           7435.72           LAND SURFACE =           -217.69
            SOIL ZONE =        2054193.01              SOIL ZONE =         -21011.59
     UNSATURATED ZONE =       -3095937.24       UNSATURATED ZONE =         -10672.73
       SATURATED ZONE =         672865.11         SATURATED ZONE =          -1622.40

 OVERALL BUDGET ERROR =          32384.68           BUDGET ERROR =            -74.10


  PERCENT DISCREPANCY =              0.84    PERCENT DISCREPANCY =             -0.22



1
 SUMMARY VOLUMETRIC BUDGET FOR GSFLOW 
 DATE: 03 03 1991              CUMULATIVE TIME STEP:       3
 MODFLOW STRESS PERIOD      7     CURRENT TIME STEP:     154     ITERATIONS:       5

 -----------------------------------------------------------------------------------

   CUMULATIVE VOLUMES               L**3   RATES FOR THIS TIME STEP           L**3/T
   ------------------                      ------------------------

                                     IN                                         IN
                                     --                                         --
        PRECIPITATION =        6220189.63          PRECIPITATION =        1243187.24
           STREAMFLOW =                               STREAMFLOW =                  
     GW BOUNDARY FLOW =             32.90       GW BOUNDARY FLOW =              0.83


                                    OUT                                        OUT
                                    ---                                        ---
   EVAPOTRANSPIRATION =        2405912.58     EVAPOTRANSPIRATION =           8443.39
           STREAMFLOW =        1663454.02             STREAMFLOW =          12291.00
     GW BOUNDARY FLOW =           5516.59       GW BOUNDARY FLOW =             35.34

   INFLOWS - OUTFLOWS =        2145339.36     INFLOWS - OUTFLOWS =        1222418.35
             --------                                   --------

 TOTAL STORAGE CHANGE =        2105928.17         STORAGE CHANGE =        1214931.29
       --------------                             --------------
         LAND SURFACE =        2352761.88           LAND SURFACE =         894135.84
            SOIL ZONE =        2264263.94              SOIL ZONE =         333441.25
     UNSATURATED ZONE =       -3168796.39       UNSATURATED ZONE =         -10263.30
       SATURATED ZONE =         657697.87         SATURATED ZONE =          -2382.52

 OVERALL BUDGET ERROR =          39411.19           BUDGET ERROR =           7487.05


  PERCENT DISCREPANCY =              0.64    PERCENT DISCREPANCY =              0.60



1
 SUMMARY VOLUMETRIC BUDGET FOR GSFLOW 
 DATE: 03 10 1991              CUMULATIVE TIME STEP:      10
 MODFLOW STRESS PERIOD      7     CURRENT TIME STEP:     161     ITERATIONS:       5

 -----------------------------------------------------------------------------------

   CUMULATIVE VOLUMES               L**3   RATES FOR THIS TIME STEP           L**3/T
   ------------------                      ------------------------

                                     IN                                         IN
                                     --                                         --
        PRECIPITATION =        8746030.42          PRECIPITATION =          32888.55
           STREAMFLOW =                               STREAMFLOW =                  
     GW BOUNDARY FLOW =             38.94       GW BOUNDARY FLOW =              0.89


                                    OUT                                        OUT
                                    ---                                        ---
   EVAPOTRANSPIRATION =        2479103.07     EVAPOTRANSPIRATION =           8863.48
           STREAMFLOW =        1789193.47             STREAMFLOW =          13077.00
     GW BOUNDARY FLOW =           5764.33       GW BOUNDARY FLOW =             35.25

   INFLOWS - OUTFLOWS =        4472008.49     INFLOWS - OUTFLOWS =          10913.71
             --------                                   --------

 TOTAL STORAGE CHANGE =        4401444.61         STORAGE CHANGE =          10076.67
       --------------                             --------------
         LAND SURFACE =        2523463.28           LAND SURFACE =         -14137.08
            SOIL ZONE =        4417001.98              SOIL ZONE =          27380.37
     UNSATURATED ZONE =       -3186696.44       UNSATURATED ZONE =          -1252.33
       SATURATED ZONE =         647674.73         SATURATED ZONE =          -1914.31

 OVERALL BUDGET ERROR =          70563.88           BUDGET ERROR =            837.04


  PERCENT DISCREPANCY =              0.81    PERCENT DISCREPANCY =              2.58



1
 SUMMARY VOLUMETRIC BUDGET FOR GSFLOW 
 DATE: 03 17 1991              CUMULATIVE TIME STEP:      17
 MODFLOW STRESS PERIOD      7     CURRENT TIME STEP:     168     ITERATIONS:       5

 -----------------------------------------------------------------------------------

   CUMULATIVE VOLUMES               L**3   RATES FOR THIS TIME STEP           L**3/T
   ------------------                      ------------------------

                                     IN                                         IN
                                     --                                         --
        PRECIPITATION =        9897129.71          PRECIPITATION =         157865.04
           STREAMFLOW =                               STREAMFLOW =                  
     GW BOUNDARY FLOW =             45.40       GW BOUNDARY FLOW =              0.95


                                    OUT                                        OUT
                                    ---                                        ---
   EVAPOTRANSPIRATION =        2506941.79     EVAPOTRANSPIRATION =           8079.74
           STREAMFLOW =        1878491.29             STREAMFLOW =          12601.41
     GW BOUNDARY FLOW =           6010.42       GW BOUNDARY FLOW =             35.09

   INFLOWS - OUTFLOWS =        5505731.61     INFLOWS - OUTFLOWS =         137149.76
             --------                                   --------

 TOTAL STORAGE CHANGE =        5435311.64         STORAGE CHANGE =         137190.05
       --------------                             --------------
         LAND SURFACE =        3672302.31           LAND SURFACE =         157496.61
            SOIL ZONE =        4327506.60              SOIL ZONE =         -16335.11
     UNSATURATED ZONE =       -3196476.53       UNSATURATED ZONE =          -1496.00
       SATURATED ZONE =         631977.99         SATURATED ZONE =          -2475.48

 OVERALL BUDGET ERROR =          70419.97           BUDGET ERROR =            -40.29


  PERCENT DISCREPANCY =              0.71    PERCENT DISCREPANCY =             -0.03



1
 SUMMARY VOLUMETRIC BUDGET FOR GSFLOW 
 DATE: 03 24 1991              CUMULATIVE TIME STEP:      24
 MODFLOW STRESS PERIOD      7     CURRENT TIME STEP:     175     ITERATIONS:       5

 -----------------------------------------------------------------------------------

   CUMULATIVE VOLUMES               L**3   RATES FOR THIS TIME STEP           L**3/T
   ------------------                      ------------------------

                                     IN                                         IN
                                     --                                         --
        PRECIPITATION =        1.1673D+07          PRECIPITATION =        1230031.83
           STREAMFLOW =                               STREAMFLOW =                  
     GW BOUNDARY FLOW =             52.28       GW BOUNDARY FLOW =              1.01


                                    OUT                                        OUT
                                    ---                                        ---
   EVAPOTRANSPIRATION =        2545755.75     EVAPOTRANSPIRATION =           4663.46
           STREAMFLOW =        1966141.06             STREAMFLOW =          12476.15
     GW BOUNDARY FLOW =           6255.46       GW BOUNDARY FLOW =             34.95

   INFLOWS - OUTFLOWS =        7155011.51     INFLOWS - OUTFLOWS =        1212858.29
             --------                                   --------

 TOTAL STORAGE CHANGE =        7084082.82         STORAGE CHANGE =        1212872.83
       --------------                             --------------
         LAND SURFACE =        5426161.22           LAND SURFACE =        1230031.83
            SOIL ZONE =        4254050.79              SOIL ZONE =         -12302.96
     UNSATURATED ZONE =       -3209353.97       UNSATURATED ZONE =          -2008.95
       SATURATED ZONE =         613223.30         SATURATED ZONE =          -2847.13

 OVERALL BUDGET ERROR =          70928.69           BUDGET ERROR =            -14.54


  PERCENT DISCREPANCY =              0.61    PERCENT DISCREPANCY =             -0.00



1
 SUMMARY VOLUMETRIC BUDGET FOR GSFLOW 
 DATE: 03 31 1991              CUMULATIVE TIME STEP:      31
 MODFLOW STRESS PERIOD      7     CURRENT TIME STEP:     182     ITERATIONS:       5

 -----------------------------------------------------------------------------------

   CUMULATIVE VOLUMES               L**3   RATES FOR THIS TIME STEP           L**3/T
   ------------------                      ------------------------

                                     IN                                         IN
                                     --                                         --
        PRECIPITATION =        1.2495D+07          PRECIPITATION =                  
           STREAMFLOW =                               STREAMFLOW =                  
     GW BOUNDARY FLOW =             59.55       GW BOUNDARY FLOW =              1.06


                                    OUT                                        OUT
                                    ---                                        ---
   EVAPOTRANSPIRATION =        2667136.33     EVAPOTRANSPIRATION =          47899.94
           STREAMFLOW =        2053408.59             STREAMFLOW =          12502.47
     GW BOUNDARY FLOW =           6499.54       GW BOUNDARY FLOW =             34.82

   INFLOWS - OUTFLOWS =        7768340.36     INFLOWS - OUTFLOWS =         -60436.16
             --------                                   --------

 TOTAL STORAGE CHANGE =        7692916.47         STORAGE CHANGE =         -63257.63
       --------------                             --------------
         LAND SURFACE =        5977198.26           LAND SURFACE =        -148137.48
            SOIL ZONE =        4346296.63              SOIL ZONE =          88557.00
     UNSATURATED ZONE =       -3222124.63       UNSATURATED ZONE =           -477.56
       SATURATED ZONE =         591544.51         SATURATED ZONE =          -3199.62

 OVERALL BUDGET ERROR =          75423.90           BUDGET ERROR =           2821.48

  ***WARNING, FLUX RATES OFF > 3%

  PERCENT DISCREPANCY =              0.61    PERCENT DISCREPANCY =              4.56



1
 SUMMARY VOLUMETRIC BUDGET FOR GSFLOW 
 DATE: 04 07 1991              CUMULATIVE TIME STEP:       7
 MODFLOW STRESS PERIOD      8     CURRENT TIME STEP:     189     ITERATIONS:       6

 -----------------------------------------------------------------------------------

   CUMULATIVE VOLUMES               L**3   RATES FOR THIS TIME STEP           L**3/T
   ------------------                      ------------------------

                                     IN                                         IN
                                     --                                         --
        PRECIPITATION =        1.3018D+07          PRECIPITATION =                  
           STREAMFLOW =                               STREAMFLOW =                  
     GW BOUNDARY FLOW =             67.20       GW BOUNDARY FLOW =              1.12


                                    OUT                                        OUT
                                    ---                                        ---
   EVAPOTRANSPIRATION =        2974859.93     EVAPOTRANSPIRATION =          15898.60
           STREAMFLOW =        2147102.28             STREAMFLOW =          14062.86
     GW BOUNDARY FLOW =           6743.03       GW BOUNDARY FLOW =             34.77

   INFLOWS - OUTFLOWS =        7889098.69     INFLOWS - OUTFLOWS =         -29995.12
             --------                                   --------

 TOTAL STORAGE CHANGE =        7782634.67         STORAGE CHANGE =         -31280.63
       --------------                             --------------
         LAND SURFACE =        4335933.24           LAND SURFACE =         -73164.41
            SOIL ZONE =        6052724.35              SOIL ZONE =          30580.42
     UNSATURATED ZONE =       -3177275.45       UNSATURATED ZONE =          13808.58
       SATURATED ZONE =         571250.57         SATURATED ZONE =          -2505.27

 OVERALL BUDGET ERROR =         106464.01           BUDGET ERROR =           1285.52

  ***WARNING, FLUX RATES OFF > 3%

  PERCENT DISCREPANCY =              0.82    PERCENT DISCREPANCY =              4.20



1
 SUMMARY VOLUMETRIC BUDGET FOR GSFLOW 
 DATE: 04 14 1991              CUMULATIVE TIME STEP:      14
 MODFLOW STRESS PERIOD      8     CURRENT TIME STEP:     196     ITERATIONS:       6

 -----------------------------------------------------------------------------------

   CUMULATIVE VOLUMES               L**3   RATES FOR THIS TIME STEP           L**3/T
   ------------------                      ------------------------

                                     IN                                         IN
                                     --                                         --
        PRECIPITATION =        1.3018D+07          PRECIPITATION =                  
           STREAMFLOW =                               STREAMFLOW =                  
     GW BOUNDARY FLOW =             75.22       GW BOUNDARY FLOW =              1.17


                                    OUT                                        OUT
                                    ---                                        ---
   EVAPOTRANSPIRATION =        3158686.67     EVAPOTRANSPIRATION =          42038.18
           STREAMFLOW =        2243889.60             STREAMFLOW =          13866.69
     GW BOUNDARY FLOW =           6985.94       GW BOUNDARY FLOW =             34.66

   INFLOWS - OUTFLOWS =        7608249.75     INFLOWS - OUTFLOWS =         -55938.36
             --------                                   --------

 TOTAL STORAGE CHANGE =        7490575.56         STORAGE CHANGE =         -58869.13
       --------------                             --------------
         LAND SURFACE =        3672284.11           LAND SURFACE =        -192335.10
            SOIL ZONE =        6331738.63              SOIL ZONE =         119027.84
     UNSATURATED ZONE =       -3068377.58       UNSATURATED ZONE =          16698.95
       SATURATED ZONE =         554928.12         SATURATED ZONE =          -2260.86

 OVERALL BUDGET ERROR =         117674.19           BUDGET ERROR =           2930.76

  ***WARNING, FLUX RATES OFF > 3%

  PERCENT DISCREPANCY =              0.91    PERCENT DISCREPANCY =              5.11



1
 SUMMARY VOLUMETRIC BUDGET FOR GSFLOW 
 DATE: 04 21 1991              CUMULATIVE TIME STEP:      21
 MODFLOW STRESS PERIOD      8     CURRENT TIME STEP:     203     ITERATIONS:       7

 -----------------------------------------------------------------------------------

   CUMULATIVE VOLUMES               L**3   RATES FOR THIS TIME STEP           L**3/T
   ------------------                      ------------------------

                                     IN                                         IN
                                     --                                         --
        PRECIPITATION =        1.3034D+07          PRECIPITATION =                  
           STREAMFLOW =                               STREAMFLOW =                  
     GW BOUNDARY FLOW =             83.58       GW BOUNDARY FLOW =              1.22


                                    OUT                                        OUT
                                    ---                                        ---
   EVAPOTRANSPIRATION =        3412182.69     EVAPOTRANSPIRATION =          46824.42
           STREAMFLOW =        2341506.56             STREAMFLOW =          14293.59
     GW BOUNDARY FLOW =           7228.17       GW BOUNDARY FLOW =             34.57

   INFLOWS - OUTFLOWS =        7273228.26     INFLOWS - OUTFLOWS =         -61151.35
             --------                                   --------

 TOTAL STORAGE CHANGE =        7139760.77         STORAGE CHANGE =         -63718.09
       --------------                             --------------
         LAND SURFACE =        2547468.51           LAND SURFACE =        -207234.02
            SOIL ZONE =        6986535.07              SOIL ZONE =         123510.28
     UNSATURATED ZONE =       -2936249.00       UNSATURATED ZONE =          21556.87
       SATURATED ZONE =         542003.57         SATURATED ZONE =          -1551.26

 OVERALL BUDGET ERROR =         133467.49           BUDGET ERROR =           2566.73

  ***WARNING, FLUX RATES OFF > 3%

  PERCENT DISCREPANCY =              1.03    PERCENT DISCREPANCY =              4.11



1
 SUMMARY VOLUMETRIC BUDGET FOR GSFLOW 
 DATE: 04 28 1991              CUMULATIVE TIME STEP:      28
 MODFLOW STRESS PERIOD      8     CURRENT TIME STEP:     210     ITERATIONS:       7

 -----------------------------------------------------------------------------------

   CUMULATIVE VOLUMES               L**3   RATES FOR THIS TIME STEP           L**3/T
   ------------------                      ------------------------

                                     IN                                         IN
                                     --                                         --
        PRECIPITATION =        1.3303D+07          PRECIPITATION =                  
           STREAMFLOW =                               STREAMFLOW =                  
     GW BOUNDARY FLOW =             92.28       GW BOUNDARY FLOW =              1.26


                                    OUT                                        OUT
                                    ---                                        ---
   EVAPOTRANSPIRATION =        3680182.40     EVAPOTRANSPIRATION =          58044.36
           STREAMFLOW =        2441407.90             STREAMFLOW =          14108.65
     GW BOUNDARY FLOW =           7469.68       GW BOUNDARY FLOW =             34.45

   INFLOWS - OUTFLOWS =        7174462.80     INFLOWS - OUTFLOWS =         -72186.19
             --------                                   --------

 TOTAL STORAGE CHANGE =        7030702.19         STORAGE CHANGE =         -73129.06
       --------------                             --------------
         LAND SURFACE =        1956065.34           LAND SURFACE =        -103533.27
            SOIL ZONE =        7315885.02              SOIL ZONE =           8102.62
     UNSATURATED ZONE =       -2775365.50       UNSATURATED ZONE =          23346.06
       SATURATED ZONE =         534114.30         SATURATED ZONE =          -1044.53

 OVERALL BUDGET ERROR =         143760.61           BUDGET ERROR =            942.87


  PERCENT DISCREPANCY =              1.09    PERCENT DISCREPANCY =              1.30



1
 SUMMARY VOLUMETRIC BUDGET FOR GSFLOW 
 DATE: 05 05 1991              CUMULATIVE TIME STEP:       5
 MODFLOW STRESS PERIOD      9     CURRENT TIME STEP:     217     ITERATIONS:       7

 -----------------------------------------------------------------------------------

   CUMULATIVE VOLUMES               L**3   RATES FOR THIS TIME STEP           L**3/T
   ------------------                      ------------------------

                                     IN                                         IN
                                     --                                         --
        PRECIPITATION =        1.3510D+07          PRECIPITATION =                  
           STREAMFLOW =                               STREAMFLOW =                  
     GW BOUNDARY FLOW =            101.30       GW BOUNDARY FLOW =              1.31


                                    OUT                                        OUT
                                    ---                                        ---
   EVAPOTRANSPIRATION =        4056804.27     EVAPOTRANSPIRATION =          90146.31
           STREAMFLOW =        2540215.83             STREAMFLOW =          14012.19
     GW BOUNDARY FLOW =           7710.37       GW BOUNDARY FLOW =             34.31

   INFLOWS - OUTFLOWS =        6905078.97     INFLOWS - OUTFLOWS =        -104191.51
             --------                                   --------

 TOTAL STORAGE CHANGE =        6754266.53         STORAGE CHANGE =        -105168.46
       --------------                             --------------
         LAND SURFACE =        1340535.39           LAND SURFACE =        -138721.82
            SOIL ZONE =        7492712.24              SOIL ZONE =           9536.83
     UNSATURATED ZONE =       -2608006.10       UNSATURATED ZONE =          24556.30
       SATURATED ZONE =         529021.56         SATURATED ZONE =           -539.84

 OVERALL BUDGET ERROR =         150812.44           BUDGET ERROR =            976.95


  PERCENT DISCREPANCY =              1.12    PERCENT DISCREPANCY =              0.93



1
 SUMMARY VOLUMETRIC BUDGET FOR GSFLOW 
 DATE: 05 12 1991              CUMULATIVE TIME STEP:      12
 MODFLOW STRESS PERIOD      9     CURRENT TIME STEP:     224     ITERATIONS:       8

 -----------------------------------------------------------------------------------

   CUMULATIVE VOLUMES               L**3   RATES FOR THIS TIME STEP           L**3/T
   ------------------                      ------------------------

                                     IN                                         IN
                                     --                                         --
        PRECIPITATION =        1.4029D+07          PRECIPITATION =                  
           STREAMFLOW =                               STREAMFLOW =                  
     GW BOUNDARY FLOW =            110.62       GW BOUNDARY FLOW =              1.35


                                    OUT                                        OUT
                                    ---                                        ---
   EVAPOTRANSPIRATION =        4452055.09     EVAPOTRANSPIRATION =          68734.74
           STREAMFLOW =        2642460.21             STREAMFLOW =          16574.46
     GW BOUNDARY FLOW =           7949.89       GW BOUNDARY FLOW =             34.18

   INFLOWS - OUTFLOWS =        6926867.59     INFLOWS - OUTFLOWS =         -85342.04
             --------                                   --------

 TOTAL STORAGE CHANGE =        6768208.87         STORAGE CHANGE =         -86459.26
       --------------                             --------------
         LAND SURFACE =         922541.63           LAND SURFACE =        -201242.83
            SOIL ZONE =        7756323.12              SOIL ZONE =          90386.91
     UNSATURATED ZONE =       -2439616.80       UNSATURATED ZONE =          24261.86
       SATURATED ZONE =         528957.05         SATURATED ZONE =            134.74

 OVERALL BUDGET ERROR =         158658.72           BUDGET ERROR =           1117.23


  PERCENT DISCREPANCY =              1.14    PERCENT DISCREPANCY =              1.30



1
 SUMMARY VOLUMETRIC BUDGET FOR GSFLOW 
 DATE: 05 19 1991              CUMULATIVE TIME STEP:      19
 MODFLOW STRESS PERIOD      9     CURRENT TIME STEP:     231     ITERATIONS:       9

 -----------------------------------------------------------------------------------

   CUMULATIVE VOLUMES               L**3   RATES FOR THIS TIME STEP           L**3/T
   ------------------                      ------------------------

                                     IN                                         IN
                                     --                                         --
        PRECIPITATION =        1.4365D+07          PRECIPITATION =                  
           STREAMFLOW =                               STREAMFLOW =                  
     GW BOUNDARY FLOW =            118.65       GW BOUNDARY FLOW =              0.83


                                    OUT                                        OUT
                                    ---                                        ---
   EVAPOTRANSPIRATION =        4890324.59     EVAPOTRANSPIRATION =          20369.32
           STREAMFLOW =        2743649.68             STREAMFLOW =          14515.61
     GW BOUNDARY FLOW =           8188.14       GW BOUNDARY FLOW =             33.96

   INFLOWS - OUTFLOWS =        6723334.55     INFLOWS - OUTFLOWS =         -34918.06
             --------                                   --------

 TOTAL STORAGE CHANGE =        6560280.90         STORAGE CHANGE =         -34940.24
       --------------                             --------------
         LAND SURFACE =         495301.97           LAND SURFACE =         -23117.07
            SOIL ZONE =        7811056.96              SOIL ZONE =         -34594.17
     UNSATURATED ZONE =       -2279755.47       UNSATURATED ZONE =          21712.40
       SATURATED ZONE =         533673.14         SATURATED ZONE =           1058.53

 OVERALL BUDGET ERROR =         163053.66           BUDGET ERROR =             22.18


  PERCENT DISCREPANCY =              1.14    PERCENT DISCREPANCY =              0.06



1
 SUMMARY VOLUMETRIC BUDGET FOR GSFLOW 
 DATE: 05 26 1991              CUMULATIVE TIME STEP:      26
 MODFLOW STRESS PERIOD      9     CURRENT TIME STEP:     238     ITERATIONS:       8

 -----------------------------------------------------------------------------------

   CUMULATIVE VOLUMES               L**3   RATES FOR THIS TIME STEP           L**3/T
   ------------------                      ------------------------

                                     IN                                         IN
                                     --                                         --
        PRECIPITATION =        1.4426D+07          PRECIPITATION =                  
           STREAMFLOW =                               STREAMFLOW =                  
     GW BOUNDARY FLOW =            121.98       GW BOUNDARY FLOW =              0.28


                                    OUT                                        OUT
                                    ---                                        ---
   EVAPOTRANSPIRATION =        5574512.61     EVAPOTRANSPIRATION =          76904.88
           STREAMFLOW =        2842833.66             STREAMFLOW =          14019.12
     GW BOUNDARY FLOW =           8425.18       GW BOUNDARY FLOW =             33.79

   INFLOWS - OUTFLOWS =        6000848.14     INFLOWS - OUTFLOWS =         -90957.50
             --------                                   --------

 TOTAL STORAGE CHANGE =        5837681.61         STORAGE CHANGE =         -90921.86
       --------------                             --------------
         LAND SURFACE =         197544.19           LAND SURFACE =         -18436.03
            SOIL ZONE =        7239769.26              SOIL ZONE =         -90313.75
     UNSATURATED ZONE =       -2142343.38       UNSATURATED ZONE =          16462.42
       SATURATED ZONE =         542706.78         SATURATED ZONE =           1365.44

 OVERALL BUDGET ERROR =         163166.53           BUDGET ERROR =            -35.64


  PERCENT DISCREPANCY =              1.14    PERCENT DISCREPANCY =             -0.04



1
 SUMMARY VOLUMETRIC BUDGET FOR GSFLOW 
 DATE: 06 02 1991              CUMULATIVE TIME STEP:       2
 MODFLOW STRESS PERIOD     10     CURRENT TIME STEP:     245     ITERATIONS:       8

 -----------------------------------------------------------------------------------

   CUMULATIVE VOLUMES               L**3   RATES FOR THIS TIME STEP           L**3/T
   ------------------                      ------------------------

                                     IN                                         IN
                                     --                                         --
        PRECIPITATION =        1.4671D+07          PRECIPITATION =                  
           STREAMFLOW =                               STREAMFLOW =                  
     GW BOUNDARY FLOW =            122.67       GW BOUNDARY FLOW =        2.2758D-03


                                    OUT                                        OUT
                                    ---                                        ---
   EVAPOTRANSPIRATION =        6163070.81     EVAPOTRANSPIRATION =         127569.50
           STREAMFLOW =        2941473.76             STREAMFLOW =          13839.40
     GW BOUNDARY FLOW =           8661.12       GW BOUNDARY FLOW =             33.67

   INFLOWS - OUTFLOWS =        5557891.79     INFLOWS - OUTFLOWS =        -141442.56
             --------                                   --------

 TOTAL STORAGE CHANGE =        5394738.65         STORAGE CHANGE =        -140431.56
       --------------                             --------------
         LAND SURFACE =          88633.57           LAND SURFACE =         -14332.45
            SOIL ZONE =        6794838.01              SOIL ZONE =        -140389.05
     UNSATURATED ZONE =       -2038254.87       UNSATURATED ZONE =          13491.73
       SATURATED ZONE =         549516.74         SATURATED ZONE =            798.14

 OVERALL BUDGET ERROR =         163153.14           BUDGET ERROR =          -1011.00


  PERCENT DISCREPANCY =              1.12    PERCENT DISCREPANCY =             -0.72



1
 SUMMARY VOLUMETRIC BUDGET FOR GSFLOW 
 DATE: 06 09 1991              CUMULATIVE TIME STEP:       9
 MODFLOW STRESS PERIOD     10     CURRENT TIME STEP:     252     ITERATIONS:       6

 -----------------------------------------------------------------------------------

   CUMULATIVE VOLUMES               L**3   RATES FOR THIS TIME STEP           L**3/T
   ------------------                      ------------------------

                                     IN                                         IN
                                     --                                         --
        PRECIPITATION =        1.4671D+07          PRECIPITATION =                  
           STREAMFLOW =                               STREAMFLOW =                  
     GW BOUNDARY FLOW =            122.67       GW BOUNDARY FLOW =                  


                                    OUT                                        OUT
                                    ---                                        ---
   EVAPOTRANSPIRATION =        6951566.27     EVAPOTRANSPIRATION =         172471.39
           STREAMFLOW =        3037208.60             STREAMFLOW =          13408.12
     GW BOUNDARY FLOW =           8897.28       GW BOUNDARY FLOW =             33.78

   INFLOWS - OUTFLOWS =        4673425.33     INFLOWS - OUTFLOWS =        -185913.28
             --------                                   --------

 TOTAL STORAGE CHANGE =        4517276.25         STORAGE CHANGE =        -184315.41
       --------------                             --------------
         LAND SURFACE =          34321.29           LAND SURFACE =          -7487.89
            SOIL ZONE =        5907870.48              SOIL ZONE =        -182328.11
     UNSATURATED ZONE =       -1977285.35       UNSATURATED ZONE =           5420.60
       SATURATED ZONE =         552364.17         SATURATED ZONE =             79.93

 OVERALL BUDGET ERROR =         156149.08           BUDGET ERROR =          -1597.87


  PERCENT DISCREPANCY =              1.07    PERCENT DISCREPANCY =             -0.86



1
 SUMMARY VOLUMETRIC BUDGET FOR GSFLOW 
 DATE: 06 16 1991              CUMULATIVE TIME STEP:      16
 MODFLOW STRESS PERIOD     10     CURRENT TIME STEP:     259     ITERATIONS:       7

 -----------------------------------------------------------------------------------

   CUMULATIVE VOLUMES               L**3   RATES FOR THIS TIME STEP           L**3/T
   ------------------                      ------------------------

                                     IN                                         IN
                                     --                                         --
        PRECIPITATION =        1.4671D+07          PRECIPITATION =                  
           STREAMFLOW =                               STREAMFLOW =                  
     GW BOUNDARY FLOW =            122.67       GW BOUNDARY FLOW =                  


                                    OUT                                        OUT
                                    ---                                        ---
   EVAPOTRANSPIRATION =        7973274.42     EVAPOTRANSPIRATION =         119175.80
           STREAMFLOW =        3130033.45             STREAMFLOW =          13198.56
     GW BOUNDARY FLOW =           9133.73       GW BOUNDARY FLOW =             33.75

   INFLOWS - OUTFLOWS =        3558655.89     INFLOWS - OUTFLOWS =        -132408.12
             --------                                   --------

 TOTAL STORAGE CHANGE =        3411842.08         STORAGE CHANGE =        -131363.98
       --------------                             --------------
         LAND SURFACE =           9152.88           LAND SURFACE =          -1827.13
            SOIL ZONE =        4831942.10              SOIL ZONE =        -125615.76
     UNSATURATED ZONE =       -1978919.59       UNSATURATED ZONE =          -3063.93
       SATURATED ZONE =         549660.55         SATURATED ZONE =           -857.22

 OVERALL BUDGET ERROR =         146813.80           BUDGET ERROR =          -1044.13


  PERCENT DISCREPANCY =              1.01    PERCENT DISCREPANCY =             -0.79



1
 SUMMARY VOLUMETRIC BUDGET FOR GSFLOW 
 DATE: 06 23 1991              CUMULATIVE TIME STEP:      23
 MODFLOW STRESS PERIOD     10     CURRENT TIME STEP:     266     ITERATIONS:       7

 -----------------------------------------------------------------------------------

   CUMULATIVE VOLUMES               L**3   RATES FOR THIS TIME STEP           L**3/T
   ------------------                      ------------------------

                                     IN                                         IN
                                     --                                         --
        PRECIPITATION =        1.4671D+07          PRECIPITATION =                  
           STREAMFLOW =                               STREAMFLOW =                  
     GW BOUNDARY FLOW =            122.67       GW BOUNDARY FLOW =                  


                                    OUT                                        OUT
                                    ---                                        ---
   EVAPOTRANSPIRATION =        8552047.82     EVAPOTRANSPIRATION =          44278.28
           STREAMFLOW =        3221888.25             STREAMFLOW =          13118.86
     GW BOUNDARY FLOW =           9369.55       GW BOUNDARY FLOW =             33.65

   INFLOWS - OUTFLOWS =        2887791.85     INFLOWS - OUTFLOWS =         -57430.79
             --------                                   --------

 TOTAL STORAGE CHANGE =        2745352.10         STORAGE CHANGE =         -57144.93
       --------------                             --------------
         LAND SURFACE =           2074.79           LAND SURFACE =           -307.10
            SOIL ZONE =        4218651.11              SOIL ZONE =         -48941.87
     UNSATURATED ZONE =       -2015918.01       UNSATURATED ZONE =          -6213.68
       SATURATED ZONE =         540537.61         SATURATED ZONE =          -1682.35

 OVERALL BUDGET ERROR =         142439.76           BUDGET ERROR =           -285.86


  PERCENT DISCREPANCY =              0.98    PERCENT DISCREPANCY =             -0.50



1
 SUMMARY VOLUMETRIC BUDGET FOR GSFLOW 
 DATE: 06 30 1991              CUMULATIVE TIME STEP:      30
 MODFLOW STRESS PERIOD     10     CURRENT TIME STEP:     273     ITERATIONS:       8

 -----------------------------------------------------------------------------------

   CUMULATIVE VOLUMES               L**3   RATES FOR THIS TIME STEP           L**3/T
[...]
                                    ---                                        ---
   EVAPOTRANSPIRATION =        8.2802D+07     EVAPOTRANSPIRATION =         106098.88
           STREAMFLOW =        4.8928D+07             STREAMFLOW =          12900.37
     GW BOUNDARY FLOW =          55773.21       GW BOUNDARY FLOW =             36.71

   INFLOWS - OUTFLOWS =        1726480.63     INFLOWS - OUTFLOWS =        -119035.96
             --------                                   --------

 TOTAL STORAGE CHANGE =         492141.95         STORAGE CHANGE =        -118746.25
       --------------                             --------------
         LAND SURFACE =         250394.10           LAND SURFACE =         -14469.68
            SOIL ZONE =        3821295.88              SOIL ZONE =         -94053.44
     UNSATURATED ZONE =        2189407.49       UNSATURATED ZONE =         -20138.39
       SATURATED ZONE =       -5769062.40         SATURATED ZONE =           9915.10

 OVERALL BUDGET ERROR =        1234338.68           BUDGET ERROR =           -289.71


  PERCENT DISCREPANCY =              0.93    PERCENT DISCREPANCY =             -0.24



1
 SUMMARY VOLUMETRIC BUDGET FOR GSFLOW 
 DATE: 09 03 1995              CUMULATIVE TIME STEP:       3
 MODFLOW STRESS PERIOD     61     CURRENT TIME STEP:    1799     ITERATIONS:      12

 -----------------------------------------------------------------------------------

   CUMULATIVE VOLUMES               L**3   RATES FOR THIS TIME STEP           L**3/T
   ------------------                      ------------------------

                                     IN                                         IN
                                     --                                         --
        PRECIPITATION =        1.3351D+08          PRECIPITATION =                  
           STREAMFLOW =                               STREAMFLOW =                  
     GW BOUNDARY FLOW =           2986.46       GW BOUNDARY FLOW =                  


                                    OUT                                        OUT
                                    ---                                        ---
   EVAPOTRANSPIRATION =        8.3523D+07     EVAPOTRANSPIRATION =          96934.22
           STREAMFLOW =        4.9014D+07             STREAMFLOW =          12082.85
     GW BOUNDARY FLOW =          56029.67       GW BOUNDARY FLOW =             36.46

   INFLOWS - OUTFLOWS =         917981.13     INFLOWS - OUTFLOWS =        -109053.54
             --------                                   --------

 TOTAL STORAGE CHANGE =        -315098.35         STORAGE CHANGE =        -108991.79
       --------------                             --------------
         LAND SURFACE =         165492.08           LAND SURFACE =         -10177.34
            SOIL ZONE =        3191290.94              SOIL ZONE =         -84243.51
     UNSATURATED ZONE =        2041680.42       UNSATURATED ZONE =         -21128.77
       SATURATED ZONE =       -5713669.75         SATURATED ZONE =           6557.67

 OVERALL BUDGET ERROR =        1233079.48           BUDGET ERROR =            -61.75


  PERCENT DISCREPANCY =              0.93    PERCENT DISCREPANCY =             -0.06



1
 SUMMARY VOLUMETRIC BUDGET FOR GSFLOW 
 DATE: 09 10 1995              CUMULATIVE TIME STEP:      10
 MODFLOW STRESS PERIOD     61     CURRENT TIME STEP:    1806     ITERATIONS:      11

 -----------------------------------------------------------------------------------

   CUMULATIVE VOLUMES               L**3   RATES FOR THIS TIME STEP           L**3/T
   ------------------                      ------------------------

                                     IN                                         IN
                                     --                                         --
        PRECIPITATION =        1.3351D+08          PRECIPITATION =                  
           STREAMFLOW =                               STREAMFLOW =                  
     GW BOUNDARY FLOW =           2986.46       GW BOUNDARY FLOW =                  


                                    OUT                                        OUT
                                    ---                                        ---
   EVAPOTRANSPIRATION =        8.4071D+07     EVAPOTRANSPIRATION =          73716.96
           STREAMFLOW =        4.9099D+07             STREAMFLOW =          11875.48
     GW BOUNDARY FLOW =          56284.63       GW BOUNDARY FLOW =             36.40

   INFLOWS - OUTFLOWS =         284954.78     INFLOWS - OUTFLOWS =         -85628.83
             --------                                   --------

 TOTAL STORAGE CHANGE =        -947799.61         STORAGE CHANGE =         -85587.97
       --------------                             --------------
         LAND SURFACE =         114180.46           LAND SURFACE =          -6288.97
            SOIL ZONE =        2712844.95              SOIL ZONE =         -63870.01
     UNSATURATED ZONE =        1892873.84       UNSATURATED ZONE =         -21263.74
       SATURATED ZONE =       -5667807.91         SATURATED ZONE =           5834.59

 OVERALL BUDGET ERROR =        1232754.39           BUDGET ERROR =            -40.86


  PERCENT DISCREPANCY =              0.92    PERCENT DISCREPANCY =             -0.05



1
 SUMMARY VOLUMETRIC BUDGET FOR GSFLOW 
 DATE: 09 17 1995              CUMULATIVE TIME STEP:      17
 MODFLOW STRESS PERIOD     61     CURRENT TIME STEP:    1813     ITERATIONS:      11

 -----------------------------------------------------------------------------------

   CUMULATIVE VOLUMES               L**3   RATES FOR THIS TIME STEP           L**3/T
   ------------------                      ------------------------

                                     IN                                         IN
                                     --                                         --
        PRECIPITATION =        1.3351D+08          PRECIPITATION =                  
           STREAMFLOW =                               STREAMFLOW =                  
     GW BOUNDARY FLOW =           2986.46       GW BOUNDARY FLOW =                  


                                    OUT                                        OUT
                                    ---                                        ---
   EVAPOTRANSPIRATION =        8.4677D+07     EVAPOTRANSPIRATION =          69992.95
           STREAMFLOW =        4.9175D+07             STREAMFLOW =          11034.94
     GW BOUNDARY FLOW =          56538.51       GW BOUNDARY FLOW =             36.25

   INFLOWS - OUTFLOWS =        -397494.03     INFLOWS - OUTFLOWS =         -81064.14
             --------                                   --------

 TOTAL STORAGE CHANGE =       -1629918.58         STORAGE CHANGE =         -81029.15
       --------------                             --------------
         LAND SURFACE =          70168.05           LAND SURFACE =          -4548.33
            SOIL ZONE =        2206228.54              SOIL ZONE =         -58617.55
     UNSATURATED ZONE =        1740899.32       UNSATURATED ZONE =         -21051.17
       SATURATED ZONE =       -5647324.62         SATURATED ZONE =           3187.75

 OVERALL BUDGET ERROR =        1232424.55           BUDGET ERROR =            -35.00


  PERCENT DISCREPANCY =              0.92    PERCENT DISCREPANCY =             -0.04



1
 SUMMARY VOLUMETRIC BUDGET FOR GSFLOW 
 DATE: 09 24 1995              CUMULATIVE TIME STEP:      24
 MODFLOW STRESS PERIOD     61     CURRENT TIME STEP:    1820     ITERATIONS:      12

 -----------------------------------------------------------------------------------

   CUMULATIVE VOLUMES               L**3   RATES FOR THIS TIME STEP           L**3/T
   ------------------                      ------------------------

                                     IN                                         IN
                                     --                                         --
        PRECIPITATION =        1.3351D+08          PRECIPITATION =                  
           STREAMFLOW =                               STREAMFLOW =                  
     GW BOUNDARY FLOW =           2986.46       GW BOUNDARY FLOW =        1.7063D-03


                                    OUT                                        OUT
                                    ---                                        ---
   EVAPOTRANSPIRATION =        8.5122D+07     EVAPOTRANSPIRATION =          47570.94
           STREAMFLOW =        4.9251D+07             STREAMFLOW =          11201.99
     GW BOUNDARY FLOW =          56791.80       GW BOUNDARY FLOW =             36.19

   INFLOWS - OUTFLOWS =        -918454.84     INFLOWS - OUTFLOWS =         -58809.11
             --------                                   --------

 TOTAL STORAGE CHANGE =       -2150659.39         STORAGE CHANGE =         -58787.40
       --------------                             --------------
         LAND SURFACE =          44803.49           LAND SURFACE =          -2405.14
            SOIL ZONE =        1842222.10              SOIL ZONE =         -38848.02
     UNSATURATED ZONE =        1592885.88       UNSATURATED ZONE =         -20873.07
       SATURATED ZONE =       -5630682.08         SATURATED ZONE =           3338.68

 OVERALL BUDGET ERROR =        1232204.55           BUDGET ERROR =            -21.72


  PERCENT DISCREPANCY =              0.91    PERCENT DISCREPANCY =             -0.04



1
 SUMMARY VOLUMETRIC BUDGET FOR GSFLOW 
 DATE: 10 01 1995              CUMULATIVE TIME STEP:       1
 MODFLOW STRESS PERIOD     62     CURRENT TIME STEP:    1827     ITERATIONS:      12

 -----------------------------------------------------------------------------------

   CUMULATIVE VOLUMES               L**3   RATES FOR THIS TIME STEP           L**3/T
   ------------------                      ------------------------

                                     IN                                         IN
                                     --                                         --
        PRECIPITATION =        1.3351D+08          PRECIPITATION =                  
           STREAMFLOW =                               STREAMFLOW =                  
     GW BOUNDARY FLOW =           2986.48       GW BOUNDARY FLOW =        4.0431D-03


                                    OUT                                        OUT
                                    ---                                        ---
   EVAPOTRANSPIRATION =        8.5328D+07     EVAPOTRANSPIRATION =          30085.07
           STREAMFLOW =        4.9334D+07             STREAMFLOW =          11745.90
     GW BOUNDARY FLOW =          57045.28       GW BOUNDARY FLOW =             36.17

   INFLOWS - OUTFLOWS =       -1207511.88     INFLOWS - OUTFLOWS =         -41867.14
             --------                                   --------

 TOTAL STORAGE CHANGE =       -2439656.49         STORAGE CHANGE =         -41858.49
       --------------                             --------------
         LAND SURFACE =          36039.12           LAND SURFACE =          -1097.60
            SOIL ZONE =        1668814.25              SOIL ZONE =         -25063.95
     UNSATURATED ZONE =        1451118.26       UNSATURATED ZONE =         -19897.28
       SATURATED ZONE =       -5595740.41         SATURATED ZONE =           4200.17

 OVERALL BUDGET ERROR =        1232144.60           BUDGET ERROR =             -8.65


  PERCENT DISCREPANCY =              0.91    PERCENT DISCREPANCY =             -0.02



1
 SUMMARY VOLUMETRIC BUDGET FOR GSFLOW 
 DATE: 10 08 1995              CUMULATIVE TIME STEP:       8
 MODFLOW STRESS PERIOD     62     CURRENT TIME STEP:    1834     ITERATIONS:      11

 -----------------------------------------------------------------------------------

   CUMULATIVE VOLUMES               L**3   RATES FOR THIS TIME STEP           L**3/T
   ------------------                      ------------------------

                                     IN                                         IN
                                     --                                         --
        PRECIPITATION =        1.3351D+08          PRECIPITATION =                  
           STREAMFLOW =                               STREAMFLOW =                  
     GW BOUNDARY FLOW =           2986.52       GW BOUNDARY FLOW =        6.6078D-03


                                    OUT                                        OUT
                                    ---                                        ---
   EVAPOTRANSPIRATION =        8.5551D+07     EVAPOTRANSPIRATION =          28433.04
           STREAMFLOW =        4.9414D+07             STREAMFLOW =          11525.82
     GW BOUNDARY FLOW =          57297.82       GW BOUNDARY FLOW =             36.02

   INFLOWS - OUTFLOWS =       -1511600.17     INFLOWS - OUTFLOWS =         -39994.87
             --------                                   --------

 TOTAL STORAGE CHANGE =       -2743674.93         STORAGE CHANGE =         -39987.71
       --------------                             --------------
         LAND SURFACE =          29836.41           LAND SURFACE =           -999.36
            SOIL ZONE =        1486578.96              SOIL ZONE =         -22746.87
     UNSATURATED ZONE =        1314747.34       UNSATURATED ZONE =         -18808.44
       SATURATED ZONE =       -5574951.02         SATURATED ZONE =           2566.80

 OVERALL BUDGET ERROR =        1232074.76           BUDGET ERROR =             -7.16


  PERCENT DISCREPANCY =              0.91    PERCENT DISCREPANCY =             -0.02



1
 SUMMARY VOLUMETRIC BUDGET FOR GSFLOW 
 DATE: 10 15 1995              CUMULATIVE TIME STEP:      15
 MODFLOW STRESS PERIOD     62     CURRENT TIME STEP:    1841     ITERATIONS:       9

 -----------------------------------------------------------------------------------

   CUMULATIVE VOLUMES               L**3   RATES FOR THIS TIME STEP           L**3/T
   ------------------                      ------------------------

                                     IN                                         IN
                                     --                                         --
        PRECIPITATION =        1.3351D+08          PRECIPITATION =                  
           STREAMFLOW =                               STREAMFLOW =                  
     GW BOUNDARY FLOW =           2986.58       GW BOUNDARY FLOW =        9.1360D-03


                                    OUT                                        OUT
                                    ---                                        ---
   EVAPOTRANSPIRATION =        8.5766D+07     EVAPOTRANSPIRATION =          33545.24
           STREAMFLOW =        4.9493D+07             STREAMFLOW =          10953.41
     GW BOUNDARY FLOW =          57549.12       GW BOUNDARY FLOW =             35.80

   INFLOWS - OUTFLOWS =       -1804913.98     INFLOWS - OUTFLOWS =         -44534.44
             --------                                   --------

 TOTAL STORAGE CHANGE =       -3036947.44         STORAGE CHANGE =         -44528.42
       --------------                             --------------
         LAND SURFACE =          23515.32           LAND SURFACE =          -1043.94
            SOIL ZONE =        1320329.41              SOIL ZONE =         -25240.08
     UNSATURATED ZONE =        1184886.26       UNSATURATED ZONE =         -18379.29
       SATURATED ZONE =       -5565792.88         SATURATED ZONE =            134.73

 OVERALL BUDGET ERROR =        1232033.46           BUDGET ERROR =             -6.02


  PERCENT DISCREPANCY =              0.91    PERCENT DISCREPANCY =             -0.01



1
 SUMMARY VOLUMETRIC BUDGET FOR GSFLOW 
 DATE: 10 22 1995              CUMULATIVE TIME STEP:      22
 MODFLOW STRESS PERIOD     62     CURRENT TIME STEP:    1848     ITERATIONS:       9

 -----------------------------------------------------------------------------------

   CUMULATIVE VOLUMES               L**3   RATES FOR THIS TIME STEP           L**3/T
   ------------------                      ------------------------

                                     IN                                         IN
                                     --                                         --
        PRECIPITATION =        1.3351D+08          PRECIPITATION =                  
           STREAMFLOW =                               STREAMFLOW =                  
     GW BOUNDARY FLOW =           2986.67       GW BOUNDARY FLOW =              0.03


                                    OUT                                        OUT
                                    ---                                        ---
   EVAPOTRANSPIRATION =        8.5959D+07     EVAPOTRANSPIRATION =           8772.34
           STREAMFLOW =        4.9570D+07             STREAMFLOW =          12126.89
     GW BOUNDARY FLOW =          57799.05       GW BOUNDARY FLOW =             35.72

   INFLOWS - OUTFLOWS =       -2075518.22     INFLOWS - OUTFLOWS =         -20934.93
             --------                                   --------

 TOTAL STORAGE CHANGE =       -3307523.12         STORAGE CHANGE =         -20945.56
       --------------                             --------------
         LAND SURFACE =          17990.59           LAND SURFACE =             -7.04
            SOIL ZONE =        1177673.31              SOIL ZONE =          -7274.13
     UNSATURATED ZONE =        1060046.83       UNSATURATED ZONE =         -16615.87
       SATURATED ZONE =       -5563349.39         SATURATED ZONE =           2951.32

 OVERALL BUDGET ERROR =        1232004.90           BUDGET ERROR =             10.63


  PERCENT DISCREPANCY =              0.90    PERCENT DISCREPANCY =              0.05



1
 SUMMARY VOLUMETRIC BUDGET FOR GSFLOW 
 DATE: 10 29 1995              CUMULATIVE TIME STEP:      29
 MODFLOW STRESS PERIOD     62     CURRENT TIME STEP:    1855     ITERATIONS:       9

 -----------------------------------------------------------------------------------

   CUMULATIVE VOLUMES               L**3   RATES FOR THIS TIME STEP           L**3/T
   ------------------                      ------------------------

                                     IN                                         IN
                                     --                                         --
        PRECIPITATION =        1.3351D+08          PRECIPITATION =                  
           STREAMFLOW =                               STREAMFLOW =                  
     GW BOUNDARY FLOW =           2987.40       GW BOUNDARY FLOW =              0.16


                                    OUT                                        OUT
                                    ---                                        ---
   EVAPOTRANSPIRATION =        8.6081D+07     EVAPOTRANSPIRATION =          21019.56
           STREAMFLOW =        4.9651D+07             STREAMFLOW =          11189.40
     GW BOUNDARY FLOW =          58048.52       GW BOUNDARY FLOW =             35.57

   INFLOWS - OUTFLOWS =       -2278602.26     INFLOWS - OUTFLOWS =         -32244.36
             --------                                   --------

 TOTAL STORAGE CHANGE =       -3510622.21         STORAGE CHANGE =         -32242.62
       --------------                             --------------
         LAND SURFACE =          16019.64           LAND SURFACE =           -602.91
            SOIL ZONE =        1087293.04              SOIL ZONE =         -14885.68
     UNSATURATED ZONE =         945734.20       UNSATURATED ZONE =         -16055.43
       SATURATED ZONE =       -5559785.71         SATURATED ZONE =           -698.75

 OVERALL BUDGET ERROR =        1232019.95           BUDGET ERROR =             -1.74


  PERCENT DISCREPANCY =              0.90    PERCENT DISCREPANCY =             -0.01



