1
 SUMMARY VOLUMETRIC BUDGET FOR GSFLOW 
 DATE: 10 07 1990              CUMULATIVE TIME STEP:       7
 MODFLOW STRESS PERIOD      2     CURRENT TIME STEP:       7     ITERATIONS:       7

 -----------------------------------------------------------------------------------

   CUMULATIVE VOLUMES               L**3   RATES FOR THIS TIME STEP           L**3/T
   ------------------                      ------------------------

                                     IN                                         IN
                                     --                                         --
        PRECIPITATION =                            PRECIPITATION =                  
           STREAMFLOW =                               STREAMFLOW =                  
     GW BOUNDARY FLOW =                         GW BOUNDARY FLOW =                  


                                    OUT                                        OUT
                                    ---                                        ---
   EVAPOTRANSPIRATION =         385031.63     EVAPOTRANSPIRATION =          11801.34
           STREAMFLOW =          45661.61             STREAMFLOW =           8128.74
     GW BOUNDARY FLOW =            252.78       GW BOUNDARY FLOW =             36.30

   INFLOWS - OUTFLOWS =        -430946.01     INFLOWS - OUTFLOWS =         -19966.38
             --------                                   --------

 TOTAL STORAGE CHANGE =        -429355.10         STORAGE CHANGE =         -19938.35
       --------------                             --------------
         LAND SURFACE =                             LAND SURFACE =                  
            SOIL ZONE =         -33384.03              SOIL ZONE =           -943.80
     UNSATURATED ZONE =        -502794.45       UNSATURATED ZONE =         -33592.86
       SATURATED ZONE =         106823.38         SATURATED ZONE =          14598.31

 OVERALL BUDGET ERROR =          -1590.91           BUDGET ERROR =            -28.04


  PERCENT DISCREPANCY =             -0.37    PERCENT DISCREPANCY =             -0.14



1
 SUMMARY VOLUMETRIC BUDGET FOR GSFLOW 
 DATE: 10 14 1990              CUMULATIVE TIME STEP:      14
 MODFLOW STRESS PERIOD      2     CURRENT TIME STEP:      14     ITERATIONS:       6

 -----------------------------------------------------------------------------------

   CUMULATIVE VOLUMES               L**3   RATES FOR THIS TIME STEP           L**3/T
   ------------------                      ------------------------

                                     IN                                         IN
                                     --                                         --
        PRECIPITATION =                            PRECIPITATION =                  
           STREAMFLOW =                               STREAMFLOW =                  
     GW BOUNDARY FLOW =                         GW BOUNDARY FLOW =                  


                                    OUT                                        OUT
                                    ---                                        ---
   EVAPOTRANSPIRATION =         665235.67     EVAPOTRANSPIRATION =          42298.13
           STREAMFLOW =         100376.39             STREAMFLOW =           7413.80
     GW BOUNDARY FLOW =            506.61       GW BOUNDARY FLOW =             36.24

   INFLOWS - OUTFLOWS =        -766118.67     INFLOWS - OUTFLOWS =         -49748.17
             --------                                   --------

 TOTAL STORAGE CHANGE =        -764154.83         STORAGE CHANGE =         -49710.99
       --------------                             --------------
         LAND SURFACE =                             LAND SURFACE =                  
            SOIL ZONE =         -58194.84              SOIL ZONE =          -4382.18
     UNSATURATED ZONE =        -877795.92       UNSATURATED ZONE =         -52080.87
       SATURATED ZONE =         171835.92         SATURATED ZONE =           6752.05

 OVERALL BUDGET ERROR =          -1963.85           BUDGET ERROR =            -37.18


  PERCENT DISCREPANCY =             -0.26    PERCENT DISCREPANCY =             -0.07



1
 SUMMARY VOLUMETRIC BUDGET FOR GSFLOW 
 DATE: 10 21 1990              CUMULATIVE TIME STEP:      21
 MODFLOW STRESS PERIOD      2     CURRENT TIME STEP:      21     ITERATIONS:       6

 -----------------------------------------------------------------------------------

   CUMULATIVE VOLUMES               L**3   RATES FOR THIS TIME STEP           L**3/T
   ------------------                      ------------------------

                                     IN                                         IN
                                     --                                         --
        PRECIPITATION =         188432.87          PRECIPITATION =                  
           STREAMFLOW =                               STREAMFLOW =                  
     GW BOUNDARY FLOW =                         GW BOUNDARY FLOW =                  


                                    OUT                                        OUT
                                    ---                                        ---
   EVAPOTRANSPIRATION =         815642.07     EVAPOTRANSPIRATION =          41836.91
           STREAMFLOW =         163139.95             STREAMFLOW =          10142.45
     GW BOUNDARY FLOW =            760.80       GW BOUNDARY FLOW =             36.37

   INFLOWS - OUTFLOWS =        -791109.95     INFLOWS - OUTFLOWS =         -52015.73
             --------                                   --------

 TOTAL STORAGE CHANGE =        -790332.75         STORAGE CHANGE =         -52006.87
       --------------                             --------------
         LAND SURFACE =          18885.57           LAND SURFACE =         -43558.49
            SOIL ZONE =          47305.10              SOIL ZONE =           2013.88
     UNSATURATED ZONE =       -1091620.78       UNSATURATED ZONE =         -21389.24
       SATURATED ZONE =         235097.35         SATURATED ZONE =          10926.98

 OVERALL BUDGET ERROR =           -777.19           BUDGET ERROR =             -8.85


  PERCENT DISCREPANCY =             -0.08    PERCENT DISCREPANCY =             -0.02



1
 SUMMARY VOLUMETRIC BUDGET FOR GSFLOW 
 DATE: 10 28 1990              CUMULATIVE TIME STEP:      28
 MODFLOW STRESS PERIOD      2     CURRENT TIME STEP:      28     ITERATIONS:       6

 -----------------------------------------------------------------------------------

   CUMULATIVE VOLUMES               L**3   RATES FOR THIS TIME STEP           L**3/T
   ------------------                      ------------------------

                                     IN                                         IN
                                     --                                         --
        PRECIPITATION =         188432.87          PRECIPITATION =                  
           STREAMFLOW =                               STREAMFLOW =                  
     GW BOUNDARY FLOW =                         GW BOUNDARY FLOW =                  


                                    OUT                                        OUT
                                    ---                                        ---
   EVAPOTRANSPIRATION =         944470.60     EVAPOTRANSPIRATION =          11826.96
           STREAMFLOW =         224519.61             STREAMFLOW =           8914.48
     GW BOUNDARY FLOW =           1013.98       GW BOUNDARY FLOW =             36.12

   INFLOWS - OUTFLOWS =        -981571.33     INFLOWS - OUTFLOWS =         -20777.57
             --------                                   --------

 TOTAL STORAGE CHANGE =        -980679.85         STORAGE CHANGE =         -20767.72
       --------------                             --------------
         LAND SURFACE =                             LAND SURFACE =                  
            SOIL ZONE =          18260.79              SOIL ZONE =          -3430.25
     UNSATURATED ZONE =       -1275154.35       UNSATURATED ZONE =         -23226.63
       SATURATED ZONE =         276213.71         SATURATED ZONE =           5889.16

 OVERALL BUDGET ERROR =           -891.48           BUDGET ERROR =             -9.85


  PERCENT DISCREPANCY =             -0.08    PERCENT DISCREPANCY =             -0.05



1
 SUMMARY VOLUMETRIC BUDGET FOR GSFLOW 
 DATE: 11 04 1990              CUMULATIVE TIME STEP:       4
 MODFLOW STRESS PERIOD      3     CURRENT TIME STEP:      35     ITERATIONS:       6

 -----------------------------------------------------------------------------------

   CUMULATIVE VOLUMES               L**3   RATES FOR THIS TIME STEP           L**3/T
   ------------------                      ------------------------

                                     IN                                         IN
                                     --                                         --
        PRECIPITATION =         703113.06          PRECIPITATION =                  
           STREAMFLOW =                               STREAMFLOW =                  
     GW BOUNDARY FLOW =                         GW BOUNDARY FLOW =                  


                                    OUT                                        OUT
                                    ---                                        ---
   EVAPOTRANSPIRATION =        1005169.70     EVAPOTRANSPIRATION =          26361.55
           STREAMFLOW =         295055.83             STREAMFLOW =          10633.16
     GW BOUNDARY FLOW =           1267.03       GW BOUNDARY FLOW =             36.14

   INFLOWS - OUTFLOWS =        -598379.49     INFLOWS - OUTFLOWS =         -37030.85
             --------                                   --------

 TOTAL STORAGE CHANGE =        -602654.70         STORAGE CHANGE =         -38309.22
       --------------                             --------------
         LAND SURFACE =         132159.65           LAND SURFACE =        -160480.33
            SOIL ZONE =         349909.94              SOIL ZONE =         132879.93
     UNSATURATED ZONE =       -1420666.55       UNSATURATED ZONE =         -20067.40
       SATURATED ZONE =         335942.24         SATURATED ZONE =           9358.58

 OVERALL BUDGET ERROR =           4275.21           BUDGET ERROR =           1278.37

  ***WARNING, FLUX RATES OFF > 3%

  PERCENT DISCREPANCY =              0.33    PERCENT DISCREPANCY =              3.39



1
 SUMMARY VOLUMETRIC BUDGET FOR GSFLOW 
 DATE: 11 11 1990              CUMULATIVE TIME STEP:      11
 MODFLOW STRESS PERIOD      3     CURRENT TIME STEP:      42     ITERATIONS:       6

 -----------------------------------------------------------------------------------

   CUMULATIVE VOLUMES               L**3   RATES FOR THIS TIME STEP           L**3/T
   ------------------                      ------------------------

                                     IN                                         IN
                                     --                                         --
        PRECIPITATION =         703113.06          PRECIPITATION =                  
           STREAMFLOW =                               STREAMFLOW =                  
     GW BOUNDARY FLOW =                         GW BOUNDARY FLOW =                  


                                    OUT                                        OUT
                                    ---                                        ---
   EVAPOTRANSPIRATION =        1082589.74     EVAPOTRANSPIRATION =          12158.65
           STREAMFLOW =         366095.59             STREAMFLOW =           9640.31
     GW BOUNDARY FLOW =           1519.13       GW BOUNDARY FLOW =             35.93

   INFLOWS - OUTFLOWS =        -747091.40     INFLOWS - OUTFLOWS =         -21834.88
             --------                                   --------

 TOTAL STORAGE CHANGE =        -751473.37         STORAGE CHANGE =         -21823.84
       --------------                             --------------
         LAND SURFACE =            595.09           LAND SURFACE =          -1416.54
            SOIL ZONE =         422044.06              SOIL ZONE =          -5448.89
     UNSATURATED ZONE =       -1559824.88       UNSATURATED ZONE =         -19857.36
       SATURATED ZONE =         385712.33         SATURATED ZONE =           4898.95

 OVERALL BUDGET ERROR =           4381.97           BUDGET ERROR =            -11.04


  PERCENT DISCREPANCY =              0.30    PERCENT DISCREPANCY =             -0.05



1
 SUMMARY VOLUMETRIC BUDGET FOR GSFLOW 
 DATE: 11 18 1990              CUMULATIVE TIME STEP:      18
 MODFLOW STRESS PERIOD      3     CURRENT TIME STEP:      49     ITERATIONS:       6

 -----------------------------------------------------------------------------------

   CUMULATIVE VOLUMES               L**3   RATES FOR THIS TIME STEP           L**3/T
   ------------------                      ------------------------

                                     IN                                         IN
                                     --                                         --
        PRECIPITATION =         747883.35          PRECIPITATION =                  
           STREAMFLOW =                               STREAMFLOW =                  
     GW BOUNDARY FLOW =                         GW BOUNDARY FLOW =                  


                                    OUT                                        OUT
                                    ---                                        ---
   EVAPOTRANSPIRATION =        1155162.57     EVAPOTRANSPIRATION =           5078.85
           STREAMFLOW =         437768.91             STREAMFLOW =          10663.91
     GW BOUNDARY FLOW =           1770.45       GW BOUNDARY FLOW =             35.88

   INFLOWS - OUTFLOWS =        -846818.58     INFLOWS - OUTFLOWS =         -15778.64
             --------                                   --------

 TOTAL STORAGE CHANGE =        -851184.71         STORAGE CHANGE =         -15782.07
       --------------                             --------------
         LAND SURFACE =           7868.08           LAND SURFACE =          -3691.47
            SOIL ZONE =         404074.25              SOIL ZONE =           -743.65
     UNSATURATED ZONE =       -1692995.68       UNSATURATED ZONE =         -18610.63
       SATURATED ZONE =         429868.59         SATURATED ZONE =           7263.67

 OVERALL BUDGET ERROR =           4366.13           BUDGET ERROR =              3.43


  PERCENT DISCREPANCY =              0.27    PERCENT DISCREPANCY =              0.02



1
 SUMMARY VOLUMETRIC BUDGET FOR GSFLOW 
 DATE: 11 25 1990              CUMULATIVE TIME STEP:      25
 MODFLOW STRESS PERIOD      3     CURRENT TIME STEP:      56     ITERATIONS:       6

 -----------------------------------------------------------------------------------

   CUMULATIVE VOLUMES               L**3   RATES FOR THIS TIME STEP           L**3/T
   ------------------                      ------------------------

                                     IN                                         IN
                                     --                                         --
        PRECIPITATION =        1009043.38          PRECIPITATION =         186542.88
           STREAMFLOW =                               STREAMFLOW =                  
     GW BOUNDARY FLOW =                         GW BOUNDARY FLOW =                  


                                    OUT                                        OUT
                                    ---                                        ---
   EVAPOTRANSPIRATION =        1215769.92     EVAPOTRANSPIRATION =           3755.07
           STREAMFLOW =         513731.37             STREAMFLOW =          10869.24
     GW BOUNDARY FLOW =           2021.39       GW BOUNDARY FLOW =             35.79

   INFLOWS - OUTFLOWS =        -722479.30     INFLOWS - OUTFLOWS =         171882.78
             --------                                   --------

 TOTAL STORAGE CHANGE =        -729024.46         STORAGE CHANGE =         169957.79
       --------------                             --------------
         LAND SURFACE =          86180.68           LAND SURFACE =          69567.13
            SOIL ZONE =         526114.77              SOIL ZONE =         112016.16
     UNSATURATED ZONE =       -1820597.73       UNSATURATED ZONE =         -17905.24
       SATURATED ZONE =         479277.77         SATURATED ZONE =           6279.73

 OVERALL BUDGET ERROR =           6545.15           BUDGET ERROR =           1924.99


  PERCENT DISCREPANCY =              0.38    PERCENT DISCREPANCY =              1.04



1
 SUMMARY VOLUMETRIC BUDGET FOR GSFLOW 
 DATE: 12 02 1990              CUMULATIVE TIME STEP:       2
 MODFLOW STRESS PERIOD      4     CURRENT TIME STEP:      63     ITERATIONS:       6

 -----------------------------------------------------------------------------------

   CUMULATIVE VOLUMES               L**3   RATES FOR THIS TIME STEP           L**3/T
   ------------------                      ------------------------

                                     IN                                         IN
                                     --                                         --
        PRECIPITATION =        1449284.55          PRECIPITATION =                  
           STREAMFLOW =                               STREAMFLOW =                  
     GW BOUNDARY FLOW =                         GW BOUNDARY FLOW =                  


                                    OUT                                        OUT
                                    ---                                        ---
   EVAPOTRANSPIRATION =        1222286.94     EVAPOTRANSPIRATION =            236.02
           STREAMFLOW =         590903.51             STREAMFLOW =          11065.52
     GW BOUNDARY FLOW =           2271.88       GW BOUNDARY FLOW =             35.77

   INFLOWS - OUTFLOWS =        -366177.77     INFLOWS - OUTFLOWS =         -11337.31
             --------                                   --------

 TOTAL STORAGE CHANGE =        -373858.41         STORAGE CHANGE =         -11346.30
       --------------                             --------------
         LAND SURFACE =         486845.62           LAND SURFACE =           -339.04
            SOIL ZONE =         558396.36              SOIL ZONE =            150.76
     UNSATURATED ZONE =       -1943443.03       UNSATURATED ZONE =         -17255.21
       SATURATED ZONE =         524342.55         SATURATED ZONE =           6097.19

 OVERALL BUDGET ERROR =           7680.64           BUDGET ERROR =              8.99


  PERCENT DISCREPANCY =              0.42    PERCENT DISCREPANCY =              0.08



1
 SUMMARY VOLUMETRIC BUDGET FOR GSFLOW 
 DATE: 12 09 1990              CUMULATIVE TIME STEP:       9
 MODFLOW STRESS PERIOD      4     CURRENT TIME STEP:      70     ITERATIONS:       6

 -----------------------------------------------------------------------------------

   CUMULATIVE VOLUMES               L**3   RATES FOR THIS TIME STEP           L**3/T
   ------------------                      ------------------------

                                     IN                                         IN
                                     --                                         --
        PRECIPITATION =        1449284.55          PRECIPITATION =                  
           STREAMFLOW =                               STREAMFLOW =                  
     GW BOUNDARY FLOW =                         GW BOUNDARY FLOW =                  


                                    OUT                                        OUT
                                    ---                                        ---
   EVAPOTRANSPIRATION =        1298380.34     EVAPOTRANSPIRATION =          13900.56
           STREAMFLOW =         668586.79             STREAMFLOW =          10914.45
     GW BOUNDARY FLOW =           2521.84       GW BOUNDARY FLOW =             35.65

   INFLOWS - OUTFLOWS =        -520204.41     INFLOWS - OUTFLOWS =         -24850.66
             --------                                   --------

 TOTAL STORAGE CHANGE =        -532384.71         STORAGE CHANGE =         -24945.19
       --------------                             --------------
         LAND SURFACE =          67215.41           LAND SURFACE =         -45889.70
            SOIL ZONE =         900826.21              SOIL ZONE =          33513.33
     UNSATURATED ZONE =       -2061290.62       UNSATURATED ZONE =         -16494.65
       SATURATED ZONE =         560864.17         SATURATED ZONE =           3925.82

 OVERALL BUDGET ERROR =          12180.30           BUDGET ERROR =             94.53


  PERCENT DISCREPANCY =              0.62    PERCENT DISCREPANCY =              0.38



1
 SUMMARY VOLUMETRIC BUDGET FOR GSFLOW 
 DATE: 12 16 1990              CUMULATIVE TIME STEP:      16
 MODFLOW STRESS PERIOD      4     CURRENT TIME STEP:      77     ITERATIONS:       5

 -----------------------------------------------------------------------------------

   CUMULATIVE VOLUMES               L**3   RATES FOR THIS TIME STEP           L**3/T
   ------------------                      ------------------------

                                     IN                                         IN
                                     --                                         --
        PRECIPITATION =        1804962.84          PRECIPITATION =                  
           STREAMFLOW =                               STREAMFLOW =                  
     GW BOUNDARY FLOW =                         GW BOUNDARY FLOW =                  


                                    OUT                                        OUT
                                    ---                                        ---
   EVAPOTRANSPIRATION =        1326721.06     EVAPOTRANSPIRATION =                  
           STREAMFLOW =         748222.62             STREAMFLOW =          11507.78
     GW BOUNDARY FLOW =           2771.25       GW BOUNDARY FLOW =             35.61

   INFLOWS - OUTFLOWS =        -272752.09     INFLOWS - OUTFLOWS =         -11543.39
             --------                                   --------

 TOTAL STORAGE CHANGE =        -287246.00         STORAGE CHANGE =         -11554.52
       --------------                             --------------
         LAND SURFACE =         252566.26           LAND SURFACE =                  
            SOIL ZONE =        1043228.74              SOIL ZONE =            -18.93
     UNSATURATED ZONE =       -2174632.18       UNSATURATED ZONE =         -15930.06
       SATURATED ZONE =         591591.02         SATURATED ZONE =           4394.46

 OVERALL BUDGET ERROR =          14493.91           BUDGET ERROR =             11.13


  PERCENT DISCREPANCY =              0.70    PERCENT DISCREPANCY =              0.10



1
 SUMMARY VOLUMETRIC BUDGET FOR GSFLOW 
 DATE: 12 23 1990              CUMULATIVE TIME STEP:      23
 MODFLOW STRESS PERIOD      4     CURRENT TIME STEP:      84     ITERATIONS:       6

 -----------------------------------------------------------------------------------

   CUMULATIVE VOLUMES               L**3   RATES FOR THIS TIME STEP           L**3/T
   ------------------                      ------------------------

                                     IN                                         IN
                                     --                                         --
        PRECIPITATION =        2276236.55          PRECIPITATION =                  
           STREAMFLOW =                               STREAMFLOW =                  
     GW BOUNDARY FLOW =              0.08       GW BOUNDARY FLOW =              0.04


                                    OUT                                        OUT
                                    ---                                        ---
   EVAPOTRANSPIRATION =        1327783.01     EVAPOTRANSPIRATION =                  
           STREAMFLOW =         828969.64             STREAMFLOW =          11559.19
     GW BOUNDARY FLOW =           3020.28       GW BOUNDARY FLOW =             35.57

   INFLOWS - OUTFLOWS =         116463.69     INFLOWS - OUTFLOWS =         -11594.72
             --------                                   --------

 TOTAL STORAGE CHANGE =         101900.88         STORAGE CHANGE =         -11604.20
       --------------                             --------------
         LAND SURFACE =         722784.34           LAND SURFACE =                  
            SOIL ZONE =        1043422.53              SOIL ZONE =             55.61
     UNSATURATED ZONE =       -2283829.92       UNSATURATED ZONE =         -15355.21
       SATURATED ZONE =         619523.74         SATURATED ZONE =           3695.39

 OVERALL BUDGET ERROR =          14562.82           BUDGET ERROR =              9.48


  PERCENT DISCREPANCY =              0.64    PERCENT DISCREPANCY =              0.08



1
 SUMMARY VOLUMETRIC BUDGET FOR GSFLOW 
 DATE: 12 30 1990              CUMULATIVE TIME STEP:      30
 MODFLOW STRESS PERIOD      4     CURRENT TIME STEP:      91     ITERATIONS:       5

 -----------------------------------------------------------------------------------

   CUMULATIVE VOLUMES               L**3   RATES FOR THIS TIME STEP           L**3/T
   ------------------                      ------------------------

                                     IN                                         IN
                                     --                                         --
        PRECIPITATION =        2276236.55          PRECIPITATION =                  
           STREAMFLOW =                               STREAMFLOW =                  
     GW BOUNDARY FLOW =              0.77       GW BOUNDARY FLOW =              0.14


                                    OUT                                        OUT
                                    ---                                        ---
   EVAPOTRANSPIRATION =        1328353.17     EVAPOTRANSPIRATION =                  
           STREAMFLOW =         910143.33             STREAMFLOW =          11628.12
     GW BOUNDARY FLOW =           3269.39       GW BOUNDARY FLOW =             35.60

   INFLOWS - OUTFLOWS =          34471.42     INFLOWS - OUTFLOWS =         -11663.58
             --------                                   --------

 TOTAL STORAGE CHANGE =          19850.23         STORAGE CHANGE =         -11671.59
       --------------                             --------------
         LAND SURFACE =         722216.94           LAND SURFACE =                  
            SOIL ZONE =        1044001.84              SOIL ZONE =            100.87
     UNSATURATED ZONE =       -2389115.78       UNSATURATED ZONE =         -14806.24
       SATURATED ZONE =         642746.99         SATURATED ZONE =           3033.78

 OVERALL BUDGET ERROR =          14621.19           BUDGET ERROR =              8.01


  PERCENT DISCREPANCY =              0.64    PERCENT DISCREPANCY =              0.07



1
 SUMMARY VOLUMETRIC BUDGET FOR GSFLOW 
 DATE: 01 06 1991              CUMULATIVE TIME STEP:       6
 MODFLOW STRESS PERIOD      5     CURRENT TIME STEP:      98     ITERATIONS:       5

 -----------------------------------------------------------------------------------

   CUMULATIVE VOLUMES               L**3   RATES FOR THIS TIME STEP           L**3/T
   ------------------                      ------------------------

                                     IN                                         IN
                                     --                                         --
        PRECIPITATION =        2276236.55          PRECIPITATION =                  
           STREAMFLOW =                               STREAMFLOW =                  
     GW BOUNDARY FLOW =              2.09       GW BOUNDARY FLOW =              0.22


                                    OUT                                        OUT
                                    ---                                        ---
   EVAPOTRANSPIRATION =        1355436.87     EVAPOTRANSPIRATION =           3191.05
           STREAMFLOW =         991984.52             STREAMFLOW =          11732.68
     GW BOUNDARY FLOW =           3519.28       GW BOUNDARY FLOW =             35.75

   INFLOWS - OUTFLOWS =         -74702.02     INFLOWS - OUTFLOWS =         -14959.26
             --------                                   --------

 TOTAL STORAGE CHANGE =         -91950.06         STORAGE CHANGE =         -15093.50
       --------------                             --------------
         LAND SURFACE =         592099.77           LAND SURFACE =          -8106.31
            SOIL ZONE =        1145220.46              SOIL ZONE =           4886.73
     UNSATURATED ZONE =       -2490467.93       UNSATURATED ZONE =         -14245.97
       SATURATED ZONE =         661197.37         SATURATED ZONE =           2372.04

 OVERALL BUDGET ERROR =          17248.03           BUDGET ERROR =            134.24


  PERCENT DISCREPANCY =              0.73    PERCENT DISCREPANCY =              0.89



1
 SUMMARY VOLUMETRIC BUDGET FOR GSFLOW 
 DATE: 01 13 1991              CUMULATIVE TIME STEP:      13
 MODFLOW STRESS PERIOD      5     CURRENT TIME STEP:     105     ITERATIONS:       6

 -----------------------------------------------------------------------------------

   CUMULATIVE VOLUMES               L**3   RATES FOR THIS TIME STEP           L**3/T
   ------------------                      ------------------------

                                     IN                                         IN
                                     --                                         --
        PRECIPITATION =        2596386.94          PRECIPITATION =          10327.43
           STREAMFLOW =                               STREAMFLOW =                  
     GW BOUNDARY FLOW =              4.01       GW BOUNDARY FLOW =              0.31


                                    OUT                                        OUT
                                    ---                                        ---
   EVAPOTRANSPIRATION =        1422384.99     EVAPOTRANSPIRATION =          18641.11
           STREAMFLOW =        1074248.60             STREAMFLOW =          11729.39
     GW BOUNDARY FLOW =           3769.50       GW BOUNDARY FLOW =             35.73

   INFLOWS - OUTFLOWS =          95987.87     INFLOWS - OUTFLOWS =         -20078.49
             --------                                   --------

 TOTAL STORAGE CHANGE =          73634.70         STORAGE CHANGE =         -21347.66
       --------------                             --------------
         LAND SURFACE =         529885.07           LAND SURFACE =        -135264.71
            SOIL ZONE =        1457483.86              SOIL ZONE =         126487.53
     UNSATURATED ZONE =       -2587755.93       UNSATURATED ZONE =         -13692.81
       SATURATED ZONE =         674021.37         SATURATED ZONE =           1122.32

 OVERALL BUDGET ERROR =          22353.17           BUDGET ERROR =           1269.17

  ***WARNING, FLUX RATES OFF > 3%

  PERCENT DISCREPANCY =              0.86    PERCENT DISCREPANCY =              4.09



1
 SUMMARY VOLUMETRIC BUDGET FOR GSFLOW 
 DATE: 01 20 1991              CUMULATIVE TIME STEP:      20
 MODFLOW STRESS PERIOD      5     CURRENT TIME STEP:     112     ITERATIONS:       5

 -----------------------------------------------------------------------------------

   CUMULATIVE VOLUMES               L**3   RATES FOR THIS TIME STEP           L**3/T
   ------------------                      ------------------------

                                     IN                                         IN
                                     --                                         --
        PRECIPITATION =        2596386.94          PRECIPITATION =                  
           STREAMFLOW =                               STREAMFLOW =                  
     GW BOUNDARY FLOW =              6.54       GW BOUNDARY FLOW =              0.40


                                    OUT                                        OUT
                                    ---                                        ---
   EVAPOTRANSPIRATION =        1499760.57     EVAPOTRANSPIRATION =           2462.53
           STREAMFLOW =        1157383.56             STREAMFLOW =          11895.34
     GW BOUNDARY FLOW =           4019.75       GW BOUNDARY FLOW =             35.75

   INFLOWS - OUTFLOWS =         -64770.40     INFLOWS - OUTFLOWS =         -14393.22
             --------                                   --------

 TOTAL STORAGE CHANGE =         -87898.18         STORAGE CHANGE =         -14388.40
       --------------                             --------------
         LAND SURFACE =         356897.60           LAND SURFACE =           -433.81
            SOIL ZONE =        1553071.99              SOIL ZONE =          -1962.89
     UNSATURATED ZONE =       -2681151.13       UNSATURATED ZONE =         -13122.27
       SATURATED ZONE =         683282.97         SATURATED ZONE =           1130.56

 OVERALL BUDGET ERROR =          23127.78           BUDGET ERROR =             -4.82


  PERCENT DISCREPANCY =              0.87    PERCENT DISCREPANCY =             -0.03



1
 SUMMARY VOLUMETRIC BUDGET FOR GSFLOW 
 DATE: 01 27 1991              CUMULATIVE TIME STEP:      27
 MODFLOW STRESS PERIOD      5     CURRENT TIME STEP:     119     ITERATIONS:       5

 -----------------------------------------------------------------------------------

   CUMULATIVE VOLUMES               L**3   RATES FOR THIS TIME STEP           L**3/T
   ------------------                      ------------------------

                                     IN                                         IN
                                     --                                         --
        PRECIPITATION =        2596386.94          PRECIPITATION =                  
           STREAMFLOW =                               STREAMFLOW =                  
     GW BOUNDARY FLOW =              9.65       GW BOUNDARY FLOW =              0.48


                                    OUT                                        OUT
                                    ---                                        ---
   EVAPOTRANSPIRATION =        1525662.44     EVAPOTRANSPIRATION =           1702.93
           STREAMFLOW =        1240658.51             STREAMFLOW =          11918.86
     GW BOUNDARY FLOW =           4269.96       GW BOUNDARY FLOW =             35.74

   INFLOWS - OUTFLOWS =        -174194.32     INFLOWS - OUTFLOWS =         -13657.06
             --------                                   --------

 TOTAL STORAGE CHANGE =        -197529.75         STORAGE CHANGE =         -13666.98
       --------------                             --------------
         LAND SURFACE =         323033.09           LAND SURFACE =           -547.84
            SOIL ZONE =        1561720.67              SOIL ZONE =          -1066.22
     UNSATURATED ZONE =       -2771069.09       UNSATURATED ZONE =         -12627.99
       SATURATED ZONE =         688785.13         SATURATED ZONE =            575.06

 OVERALL BUDGET ERROR =          23335.43           BUDGET ERROR =              9.92


  PERCENT DISCREPANCY =              0.84    PERCENT DISCREPANCY =              0.07



1
 SUMMARY VOLUMETRIC BUDGET FOR GSFLOW 
 DATE: 02 03 1991              CUMULATIVE TIME STEP:       3
 MODFLOW STRESS PERIOD      6     CURRENT TIME STEP:     126     ITERATIONS:       6

 -----------------------------------------------------------------------------------

   CUMULATIVE VOLUMES               L**3   RATES FOR THIS TIME STEP           L**3/T
   ------------------                      ------------------------

                                     IN                                         IN
                                     --                                         --
        PRECIPITATION =        3228422.31          PRECIPITATION =          30459.53
           STREAMFLOW =                               STREAMFLOW =                  
     GW BOUNDARY FLOW =             13.30       GW BOUNDARY FLOW =              0.55


                                    OUT                                        OUT
                                    ---                                        ---
   EVAPOTRANSPIRATION =        1632680.55     EVAPOTRANSPIRATION =          21403.91
           STREAMFLOW =        1325524.21             STREAMFLOW =          12224.43
     GW BOUNDARY FLOW =           4520.09       GW BOUNDARY FLOW =             35.74

   INFLOWS - OUTFLOWS =         265710.77     INFLOWS - OUTFLOWS =          -3203.99
             --------                                   --------

 TOTAL STORAGE CHANGE =         235234.28         STORAGE CHANGE =          -3481.56
       --------------                             --------------
         LAND SURFACE =         157683.43           LAND SURFACE =         -26376.35
            SOIL ZONE =        2245243.41              SOIL ZONE =          35088.90
     UNSATURATED ZONE =       -2857674.75       UNSATURATED ZONE =         -12195.04
       SATURATED ZONE =         689981.68         SATURATED ZONE =              0.92

 OVERALL BUDGET ERROR =          30476.49           BUDGET ERROR =            277.57


  PERCENT DISCREPANCY =              0.95    PERCENT DISCREPANCY =              0.82



1
 SUMMARY VOLUMETRIC BUDGET FOR GSFLOW 
 DATE: 02 10 1991              CUMULATIVE TIME STEP:      10
 MODFLOW STRESS PERIOD      6     CURRENT TIME STEP:     133     ITERATIONS:       5

 -----------------------------------------------------------------------------------

   CUMULATIVE VOLUMES               L**3   RATES FOR THIS TIME STEP           L**3/T
   ------------------                      ------------------------

                                     IN                                         IN
                                     --                                         --
        PRECIPITATION =        3510173.01          PRECIPITATION =                  
           STREAMFLOW =                               STREAMFLOW =                  
     GW BOUNDARY FLOW =             17.48       GW BOUNDARY FLOW =              0.63


                                    OUT                                        OUT
                                    ---                                        ---
   EVAPOTRANSPIRATION =        1800463.13     EVAPOTRANSPIRATION =          25669.07
           STREAMFLOW =        1411574.04             STREAMFLOW =          12153.54
     GW BOUNDARY FLOW =           4770.17       GW BOUNDARY FLOW =             35.72

   INFLOWS - OUTFLOWS =         293383.15     INFLOWS - OUTFLOWS =         -37857.70
             --------                                   --------

 TOTAL STORAGE CHANGE =         260345.16         STORAGE CHANGE =         -37774.37
       --------------                             --------------
         LAND SURFACE =          75877.11           LAND SURFACE =          -8469.89
            SOIL ZONE =        2437135.38              SOIL ZONE =         -17106.16
     UNSATURATED ZONE =       -2940840.36       UNSATURATED ZONE =         -11687.33
       SATURATED ZONE =         688172.43         SATURATED ZONE =           -511.00

 OVERALL BUDGET ERROR =          33037.99           BUDGET ERROR =            -83.33


  PERCENT DISCREPANCY =              0.95    PERCENT DISCREPANCY =             -0.22



1
 SUMMARY VOLUMETRIC BUDGET FOR GSFLOW 
 DATE: 02 17 1991              CUMULATIVE TIME STEP:      17
 MODFLOW STRESS PERIOD      6     CURRENT TIME STEP:     140     ITERATIONS:       5

 -----------------------------------------------------------------------------------

   CUMULATIVE VOLUMES               L**3   RATES FOR THIS TIME STEP           L**3/T
   ------------------                      ------------------------

                                     IN                                         IN
                                     --                                         --
        PRECIPITATION =        3510173.01          PRECIPITATION =                  
           STREAMFLOW =                               STREAMFLOW =                  
     GW BOUNDARY FLOW =             22.15       GW BOUNDARY FLOW =              0.70


                                    OUT                                        OUT
                                    ---                                        ---
   EVAPOTRANSPIRATION =        2043522.71     EVAPOTRANSPIRATION =          23705.65
           STREAMFLOW =        1496222.62             STREAMFLOW =          12092.44
     GW BOUNDARY FLOW =           5020.10       GW BOUNDARY FLOW =             35.68

   INFLOWS - OUTFLOWS =         -34570.28     INFLOWS - OUTFLOWS =         -35833.07
             --------                                   --------

 TOTAL STORAGE CHANGE =         -66803.22         STORAGE CHANGE =         -35753.37
       --------------                             --------------
         LAND SURFACE =          17890.99           LAND SURFACE =          -1143.67
            SOIL ZONE =        2253392.23              SOIL ZONE =         -22469.67
     UNSATURATED ZONE =       -3020457.59       UNSATURATED ZONE =         -11090.83
       SATURATED ZONE =         682370.47         SATURATED ZONE =          -1049.21

 OVERALL BUDGET ERROR =          32232.94           BUDGET ERROR =            -79.71


  PERCENT DISCREPANCY =              0.91    PERCENT DISCREPANCY =             -0.22



1
 SUMMARY VOLUMETRIC BUDGET FOR GSFLOW 
 DATE: 02 24 1991              CUMULATIVE TIME STEP:      24
 MODFLOW STRESS PERIOD      6     CURRENT TIME STEP:     147     ITERATIONS:       5

 -----------------------------------------------------------------------------------

   CUMULATIVE VOLUMES               L**3   RATES FOR THIS TIME STEP           L**3/T
   ------------------                      ------------------------

                                     IN                                         IN
                                     --                                         --
        PRECIPITATION =        3510173.01          PRECIPITATION =                  
           STREAMFLOW =                               STREAMFLOW =                  
     GW BOUNDARY FLOW =             27.30       GW BOUNDARY FLOW =              0.76


                                    OUT                                        OUT
                                    ---                                        ---
   EVAPOTRANSPIRATION =        2256963.30     EVAPOTRANSPIRATION =          21630.12
           STREAMFLOW =        1580413.12             STREAMFLOW =          11999.82
     GW BOUNDARY FLOW =           5269.13       GW BOUNDARY FLOW =             35.48

   INFLOWS - OUTFLOWS =        -332445.24     INFLOWS - OUTFLOWS =         -33664.67
             --------                                   --------

 TOTAL STORAGE CHANGE =        -363953.96         STORAGE CHANGE =         -33588.64
       --------------                             --------------
         LAND SURFACE =           7435.72           LAND SURFACE =           -217.69
            SOIL ZONE =        2052165.46              SOIL ZONE =         -21119.68
     UNSATURATED ZONE =       -3096443.05       UNSATURATED ZONE =         -10680.80
       SATURATED ZONE =         672887.13         SATURATED ZONE =          -1570.48

 OVERALL BUDGET ERROR =          31508.72           BUDGET ERROR =            -76.02


  PERCENT DISCREPANCY =              0.82    PERCENT DISCREPANCY =             -0.23



1
 SUMMARY VOLUMETRIC BUDGET FOR GSFLOW 
 DATE: 03 03 1991              CUMULATIVE TIME STEP:       3
 MODFLOW STRESS PERIOD      7     CURRENT TIME STEP:     154     ITERATIONS:       5

 -----------------------------------------------------------------------------------

   CUMULATIVE VOLUMES               L**3   RATES FOR THIS TIME STEP           L**3/T
   ------------------                      ------------------------

                                     IN                                         IN
                                     --                                         --
        PRECIPITATION =        6220189.63          PRECIPITATION =        1243187.24
           STREAMFLOW =                               STREAMFLOW =                  
     GW BOUNDARY FLOW =             32.90       GW BOUNDARY FLOW =              0.83


                                    OUT                                        OUT
                                    ---                                        ---
   EVAPOTRANSPIRATION =        2409042.90     EVAPOTRANSPIRATION =           8456.22
           STREAMFLOW =        1664142.27             STREAMFLOW =          12305.91
     GW BOUNDARY FLOW =           5516.83       GW BOUNDARY FLOW =             35.34

   INFLOWS - OUTFLOWS =        2141520.52     INFLOWS - OUTFLOWS =        1222390.61
             --------                                   --------

 TOTAL STORAGE CHANGE =        2102861.28         STORAGE CHANGE =        1214770.05
       --------------                             --------------
         LAND SURFACE =        2352761.88           LAND SURFACE =         894135.84
            SOIL ZONE =        2261235.10              SOIL ZONE =         333297.37
     UNSATURATED ZONE =       -3169404.22       UNSATURATED ZONE =         -10274.14
       SATURATED ZONE =         658267.66         SATURATED ZONE =          -2389.04

 OVERALL BUDGET ERROR =          38659.24           BUDGET ERROR =           7620.56


  PERCENT DISCREPANCY =              0.62    PERCENT DISCREPANCY =              0.61



1
 SUMMARY VOLUMETRIC BUDGET FOR GSFLOW 
 DATE: 03 10 1991              CUMULATIVE TIME STEP:      10
 MODFLOW STRESS PERIOD      7     CURRENT TIME STEP:     161     ITERATIONS:       5

 -----------------------------------------------------------------------------------

   CUMULATIVE VOLUMES               L**3   RATES FOR THIS TIME STEP           L**3/T
   ------------------                      ------------------------

                                     IN                                         IN
                                     --                                         --
        PRECIPITATION =        8746030.42          PRECIPITATION =          32888.55
           STREAMFLOW =                               STREAMFLOW =                  
     GW BOUNDARY FLOW =             38.93       GW BOUNDARY FLOW =              0.89


                                    OUT                                        OUT
                                    ---                                        ---
   EVAPOTRANSPIRATION =        2482338.49     EVAPOTRANSPIRATION =           8863.51
           STREAMFLOW =        1849430.43             STREAMFLOW =          22216.33
     GW BOUNDARY FLOW =           5765.78       GW BOUNDARY FLOW =             35.45

   INFLOWS - OUTFLOWS =        4408534.65     INFLOWS - OUTFLOWS =           1774.15
             --------                                   --------

 TOTAL STORAGE CHANGE =        4355316.91         STORAGE CHANGE =           1490.82
       --------------                             --------------
         LAND SURFACE =        2523463.28           LAND SURFACE =         -14137.08
            SOIL ZONE =        4369083.27              SOIL ZONE =          18860.51
     UNSATURATED ZONE =       -3190255.28       UNSATURATED ZONE =          -1921.20
       SATURATED ZONE =         653024.58         SATURATED ZONE =          -1311.44

 OVERALL BUDGET ERROR =          53217.74           BUDGET ERROR =            283.33


  PERCENT DISCREPANCY =              0.61    PERCENT DISCREPANCY =              0.87



1
 SUMMARY VOLUMETRIC BUDGET FOR GSFLOW 
 DATE: 03 17 1991              CUMULATIVE TIME STEP:      17
 MODFLOW STRESS PERIOD      7     CURRENT TIME STEP:     168     ITERATIONS:       5

 -----------------------------------------------------------------------------------

   CUMULATIVE VOLUMES               L**3   RATES FOR THIS TIME STEP           L**3/T
   ------------------                      ------------------------

                                     IN                                         IN
                                     --                                         --
        PRECIPITATION =        9897129.71          PRECIPITATION =         157865.04
           STREAMFLOW =                               STREAMFLOW =                  
     GW BOUNDARY FLOW =             45.37       GW BOUNDARY FLOW =              0.95


                                    OUT                                        OUT
                                    ---                                        ---
   EVAPOTRANSPIRATION =        2510177.32     EVAPOTRANSPIRATION =           8079.77
           STREAMFLOW =        1992557.10             STREAMFLOW =          19797.29
     GW BOUNDARY FLOW =           6013.07       GW BOUNDARY FLOW =             35.25

   INFLOWS - OUTFLOWS =        5388427.59     INFLOWS - OUTFLOWS =         129953.68
             --------                                   --------

 TOTAL STORAGE CHANGE =        5335315.47         STORAGE CHANGE =         129998.59
       --------------                             --------------
         LAND SURFACE =        3672302.31           LAND SURFACE =         157496.61
            SOIL ZONE =        4229534.48              SOIL ZONE =         -22747.58
     UNSATURATED ZONE =       -3207208.71       UNSATURATED ZONE =          -2700.03
       SATURATED ZONE =         640686.11         SATURATED ZONE =          -2050.44

 OVERALL BUDGET ERROR =          53112.12           BUDGET ERROR =            -44.91


  PERCENT DISCREPANCY =              0.54    PERCENT DISCREPANCY =             -0.03



1
 SUMMARY VOLUMETRIC BUDGET FOR GSFLOW 
 DATE: 03 24 1991              CUMULATIVE TIME STEP:      24
 MODFLOW STRESS PERIOD      7     CURRENT TIME STEP:     175     ITERATIONS:       5

 -----------------------------------------------------------------------------------

   CUMULATIVE VOLUMES               L**3   RATES FOR THIS TIME STEP           L**3/T
   ------------------                      ------------------------

                                     IN                                         IN
                                     --                                         --
        PRECIPITATION =        1.1673D+07          PRECIPITATION =        1230031.83
           STREAMFLOW =                               STREAMFLOW =                  
     GW BOUNDARY FLOW =             52.22       GW BOUNDARY FLOW =              1.00


                                    OUT                                        OUT
                                    ---                                        ---
   EVAPOTRANSPIRATION =        2549003.61     EVAPOTRANSPIRATION =           4663.50
           STREAMFLOW =        2127079.76             STREAMFLOW =          18919.25
     GW BOUNDARY FLOW =           6259.15       GW BOUNDARY FLOW =             35.09

   INFLOWS - OUTFLOWS =        6990821.20     INFLOWS - OUTFLOWS =        1206415.00
             --------                                   --------

 TOTAL STORAGE CHANGE =        6937653.86         STORAGE CHANGE =        1206417.84
       --------------                             --------------
         LAND SURFACE =        5426161.22           LAND SURFACE =        1230031.83
            SOIL ZONE =        4116560.38              SOIL ZONE =         -17681.64
     UNSATURATED ZONE =       -3229740.27       UNSATURATED ZONE =          -3465.87
       SATURATED ZONE =         624671.05         SATURATED ZONE =          -2466.51

 OVERALL BUDGET ERROR =          53167.34           BUDGET ERROR =             -2.84


  PERCENT DISCREPANCY =              0.46    PERCENT DISCREPANCY =             -0.00



1
 SUMMARY VOLUMETRIC BUDGET FOR GSFLOW 
 DATE: 03 31 1991              CUMULATIVE TIME STEP:      31
 MODFLOW STRESS PERIOD      7     CURRENT TIME STEP:     182     ITERATIONS:       6

 -----------------------------------------------------------------------------------

   CUMULATIVE VOLUMES               L**3   RATES FOR THIS TIME STEP           L**3/T
   ------------------                      ------------------------

                                     IN                                         IN
                                     --                                         --
        PRECIPITATION =        1.2495D+07          PRECIPITATION =                  
           STREAMFLOW =                               STREAMFLOW =                  
     GW BOUNDARY FLOW =             59.46       GW BOUNDARY FLOW =              1.06


                                    OUT                                        OUT
                                    ---                                        ---
   EVAPOTRANSPIRATION =        2670768.08     EVAPOTRANSPIRATION =          48055.46
           STREAMFLOW =        2261709.42             STREAMFLOW =          22444.86
     GW BOUNDARY FLOW =           6504.26       GW BOUNDARY FLOW =             35.03

   INFLOWS - OUTFLOWS =        7556402.99     INFLOWS - OUTFLOWS =         -70534.29
             --------                                   --------

 TOTAL STORAGE CHANGE =        7502003.87         STORAGE CHANGE =         -71457.41
       --------------                             --------------
         LAND SURFACE =        5977198.26           LAND SURFACE =        -148137.48
            SOIL ZONE =        4172064.04              SOIL ZONE =          81779.72
     UNSATURATED ZONE =       -3253901.84       UNSATURATED ZONE =          -2436.94
       SATURATED ZONE =         606641.71         SATURATED ZONE =          -2662.73

 OVERALL BUDGET ERROR =          54399.12           BUDGET ERROR =            923.12


  PERCENT DISCREPANCY =              0.44    PERCENT DISCREPANCY =              1.30



1
 SUMMARY VOLUMETRIC BUDGET FOR GSFLOW 
 DATE: 04 07 1991              CUMULATIVE TIME STEP:       7
 MODFLOW STRESS PERIOD      8     CURRENT TIME STEP:     189     ITERATIONS:       7

 -----------------------------------------------------------------------------------

   CUMULATIVE VOLUMES               L**3   RATES FOR THIS TIME STEP           L**3/T
   ------------------                      ------------------------

                                     IN                                         IN
                                     --                                         --
        PRECIPITATION =        1.3018D+07          PRECIPITATION =                  
           STREAMFLOW =                               STREAMFLOW =                  
     GW BOUNDARY FLOW =             67.06       GW BOUNDARY FLOW =              1.11


                                    OUT                                        OUT
                                    ---                                        ---
   EVAPOTRANSPIRATION =        2978872.00     EVAPOTRANSPIRATION =          15960.30
           STREAMFLOW =        2584111.44             STREAMFLOW =          64508.41
     GW BOUNDARY FLOW =           6751.71       GW BOUNDARY FLOW =             35.61

   INFLOWS - OUTFLOWS =        7448068.65     INFLOWS - OUTFLOWS =         -80503.22
             --------                                   --------

 TOTAL STORAGE CHANGE =        7384449.93         STORAGE CHANGE =         -81019.30
       --------------                             --------------
         LAND SURFACE =        4335933.24           LAND SURFACE =         -73164.41
            SOIL ZONE =        5687262.57              SOIL ZONE =         -15183.11
     UNSATURATED ZONE =       -3230309.34       UNSATURATED ZONE =           9290.71
       SATURATED ZONE =         591561.51         SATURATED ZONE =          -1962.54

 OVERALL BUDGET ERROR =          63618.72           BUDGET ERROR =            516.08


  PERCENT DISCREPANCY =              0.49    PERCENT DISCREPANCY =              0.64



1
 SUMMARY VOLUMETRIC BUDGET FOR GSFLOW 
 DATE: 04 14 1991              CUMULATIVE TIME STEP:      14
 MODFLOW STRESS PERIOD      8     CURRENT TIME STEP:     196     ITERATIONS:       7

 -----------------------------------------------------------------------------------

   CUMULATIVE VOLUMES               L**3   RATES FOR THIS TIME STEP           L**3/T
   ------------------                      ------------------------

                                     IN                                         IN
                                     --                                         --
        PRECIPITATION =        1.3018D+07          PRECIPITATION =                  
           STREAMFLOW =                               STREAMFLOW =                  
     GW BOUNDARY FLOW =             74.99       GW BOUNDARY FLOW =              1.15


                                    OUT                                        OUT
                                    ---                                        ---
   EVAPOTRANSPIRATION =        3162987.42     EVAPOTRANSPIRATION =          42038.19
           STREAMFLOW =        3081940.40             STREAMFLOW =          75806.27
     GW BOUNDARY FLOW =           7001.07       GW BOUNDARY FLOW =             35.63

   INFLOWS - OUTFLOWS =        6765882.84     INFLOWS - OUTFLOWS =        -117878.94
             --------                                   --------

 TOTAL STORAGE CHANGE =        6698957.89         STORAGE CHANGE =        -118761.44
       --------------                             --------------
         LAND SURFACE =        3672284.11           LAND SURFACE =        -192335.10
            SOIL ZONE =        5616223.90              SOIL ZONE =          66838.45
     UNSATURATED ZONE =       -3168394.71       UNSATURATED ZONE =           8393.90
       SATURATED ZONE =         578842.31         SATURATED ZONE =          -1658.73

 OVERALL BUDGET ERROR =          66924.95           BUDGET ERROR =            882.50


  PERCENT DISCREPANCY =              0.52    PERCENT DISCREPANCY =              0.75



1
 SUMMARY VOLUMETRIC BUDGET FOR GSFLOW 
 DATE: 04 21 1991              CUMULATIVE TIME STEP:      21
 MODFLOW STRESS PERIOD      8     CURRENT TIME STEP:     203     ITERATIONS:       9

 -----------------------------------------------------------------------------------

   CUMULATIVE VOLUMES               L**3   RATES FOR THIS TIME STEP           L**3/T
   ------------------                      ------------------------

                                     IN                                         IN
                                     --                                         --
        PRECIPITATION =        1.3034D+07          PRECIPITATION =                  
           STREAMFLOW =                               STREAMFLOW =                  
     GW BOUNDARY FLOW =             83.21       GW BOUNDARY FLOW =              1.19


                                    OUT                                        OUT
                                    ---                                        ---
   EVAPOTRANSPIRATION =        3416628.28     EVAPOTRANSPIRATION =          46896.67
           STREAMFLOW =        3654651.26             STREAMFLOW =          93518.02
     GW BOUNDARY FLOW =           7250.65       GW BOUNDARY FLOW =             35.76

   INFLOWS - OUTFLOWS =        5955615.12     INFLOWS - OUTFLOWS =        -140449.26
             --------                                   --------

 TOTAL STORAGE CHANGE =        5884069.28         STORAGE CHANGE =        -141202.70
       --------------                             --------------
         LAND SURFACE =        2500870.94           LAND SURFACE =        -216968.59
            SOIL ZONE =        5920180.89              SOIL ZONE =          66481.43
     UNSATURATED ZONE =       -3104711.59       UNSATURATED ZONE =          10621.30
       SATURATED ZONE =         567726.41         SATURATED ZONE =          -1336.89

 OVERALL BUDGET ERROR =          71545.83           BUDGET ERROR =            753.44


  PERCENT DISCREPANCY =              0.55    PERCENT DISCREPANCY =              0.54



1
 SUMMARY VOLUMETRIC BUDGET FOR GSFLOW 
 DATE: 04 28 1991              CUMULATIVE TIME STEP:      28
 MODFLOW STRESS PERIOD      8     CURRENT TIME STEP:     210     ITERATIONS:       6

 -----------------------------------------------------------------------------------

   CUMULATIVE VOLUMES               L**3   RATES FOR THIS TIME STEP           L**3/T
   ------------------                      ------------------------

                                     IN                                         IN
                                     --                                         --
        PRECIPITATION =        1.3303D+07          PRECIPITATION =                  
           STREAMFLOW =                               STREAMFLOW =                  
     GW BOUNDARY FLOW =             91.70       GW BOUNDARY FLOW =              1.23


                                    OUT                                        OUT
                                    ---                                        ---
   EVAPOTRANSPIRATION =        3685056.03     EVAPOTRANSPIRATION =          58233.50
           STREAMFLOW =        4326033.22             STREAMFLOW =          95185.43
     GW BOUNDARY FLOW =           7500.80       GW BOUNDARY FLOW =             35.69

   INFLOWS - OUTFLOWS =        5284932.15     INFLOWS - OUTFLOWS =        -153453.39
             --------                                   --------

 TOTAL STORAGE CHANGE =        5209709.67         STORAGE CHANGE =        -153707.72
       --------------                             --------------
         LAND SURFACE =        1748447.64           LAND SURFACE =        -137153.52
            SOIL ZONE =        5929440.93              SOIL ZONE =         -25948.05
     UNSATURATED ZONE =       -3029043.12       UNSATURATED ZONE =          10364.11
       SATURATED ZONE =         560861.21         SATURATED ZONE =           -970.32

 OVERALL BUDGET ERROR =          75222.48           BUDGET ERROR =            254.34


  PERCENT DISCREPANCY =              0.57    PERCENT DISCREPANCY =              0.17



1
 SUMMARY VOLUMETRIC BUDGET FOR GSFLOW 
 DATE: 05 05 1991              CUMULATIVE TIME STEP:       5
 MODFLOW STRESS PERIOD      9     CURRENT TIME STEP:     217     ITERATIONS:      72

 -----------------------------------------------------------------------------------

   CUMULATIVE VOLUMES               L**3   RATES FOR THIS TIME STEP           L**3/T
   ------------------                      ------------------------

                                     IN                                         IN
                                     --                                         --
        PRECIPITATION =        1.3510D+07          PRECIPITATION =                  
           STREAMFLOW =                               STREAMFLOW =                  
     GW BOUNDARY FLOW =            100.46       GW BOUNDARY FLOW =              1.27


                                    OUT                                        OUT
                                    ---                                        ---
   EVAPOTRANSPIRATION =        4062592.78     EVAPOTRANSPIRATION =          90413.56
           STREAMFLOW =        4933831.96             STREAMFLOW =          86485.59
     GW BOUNDARY FLOW =           7749.43       GW BOUNDARY FLOW =             35.45

   INFLOWS - OUTFLOWS =        4505634.41     INFLOWS - OUTFLOWS =        -176933.33
             --------                                   --------

 TOTAL STORAGE CHANGE =        4428927.61         STORAGE CHANGE =        -177029.19
       --------------                             --------------
         LAND SURFACE =        1036420.07           LAND SURFACE =        -150153.36
            SOIL ZONE =        5800828.77              SOIL ZONE =         -36030.09
     UNSATURATED ZONE =       -2963357.91       UNSATURATED ZONE =           8135.23
       SATURATED ZONE =         555033.24         SATURATED ZONE =           1018.96

 OVERALL BUDGET ERROR =          76706.81           BUDGET ERROR =             95.86


  PERCENT DISCREPANCY =              0.57    PERCENT DISCREPANCY =              0.05



1
 SUMMARY VOLUMETRIC BUDGET FOR GSFLOW 
 DATE: 05 12 1991              CUMULATIVE TIME STEP:      12
 MODFLOW STRESS PERIOD      9     CURRENT TIME STEP:     224     ITERATIONS:       7

 -----------------------------------------------------------------------------------

   CUMULATIVE VOLUMES               L**3   RATES FOR THIS TIME STEP           L**3/T
   ------------------                      ------------------------

                                     IN                                         IN
                                     --                                         --
        PRECIPITATION =        1.4029D+07          PRECIPITATION =                  
           STREAMFLOW =                               STREAMFLOW =                  
     GW BOUNDARY FLOW =            109.48       GW BOUNDARY FLOW =              1.31


                                    OUT                                        OUT
                                    ---                                        ---
   EVAPOTRANSPIRATION =        4458216.89     EVAPOTRANSPIRATION =          68953.88
           STREAMFLOW =        5499976.11             STREAMFLOW =          84056.65
     GW BOUNDARY FLOW =           7996.35       GW BOUNDARY FLOW =             35.23

   INFLOWS - OUTFLOWS =        4063142.28     INFLOWS - OUTFLOWS =        -153044.46
             --------                                   --------

 TOTAL STORAGE CHANGE =        3984489.31         STORAGE CHANGE =        -152926.32
       --------------                             --------------
         LAND SURFACE =         579124.41           LAND SURFACE =        -205427.93
            SOIL ZONE =        5760560.34              SOIL ZONE =          45111.89
     UNSATURATED ZONE =       -2901638.34       UNSATURATED ZONE =           8630.32
       SATURATED ZONE =         546439.01         SATURATED ZONE =          -1240.67

 OVERALL BUDGET ERROR =          78652.97           BUDGET ERROR =           -118.14


  PERCENT DISCREPANCY =              0.56    PERCENT DISCREPANCY =             -0.08



1
 SUMMARY VOLUMETRIC BUDGET FOR GSFLOW 
 DATE: 05 19 1991              CUMULATIVE TIME STEP:      19
 MODFLOW STRESS PERIOD      9     CURRENT TIME STEP:     231     ITERATIONS:       9

 -----------------------------------------------------------------------------------

   CUMULATIVE VOLUMES               L**3   RATES FOR THIS TIME STEP           L**3/T
   ------------------                      ------------------------

                                     IN                                         IN
                                     --                                         --
        PRECIPITATION =        1.4365D+07          PRECIPITATION =                  
           STREAMFLOW =                               STREAMFLOW =                  
     GW BOUNDARY FLOW =            118.77       GW BOUNDARY FLOW =              1.34


                                    OUT                                        OUT
                                    ---                                        ---
   EVAPOTRANSPIRATION =        4896892.05     EVAPOTRANSPIRATION =          20444.02
           STREAMFLOW =        5991532.05             STREAMFLOW =          62270.00
     GW BOUNDARY FLOW =           8241.06       GW BOUNDARY FLOW =             34.77

   INFLOWS - OUTFLOWS =        3468831.92     INFLOWS - OUTFLOWS =         -82747.45
             --------                                   --------

 TOTAL STORAGE CHANGE =        3389125.77         STORAGE CHANGE =         -82719.13
       --------------                             --------------
         LAND SURFACE =         228252.15           LAND SURFACE =         -22354.64
            SOIL ZONE =        5477564.98              SOIL ZONE =         -64490.24
     UNSATURATED ZONE =       -2854347.99       UNSATURATED ZONE =           5376.93
       SATURATED ZONE =         537652.27         SATURATED ZONE =          -1251.24

 OVERALL BUDGET ERROR =          79706.15           BUDGET ERROR =            -28.32


  PERCENT DISCREPANCY =              0.56    PERCENT DISCREPANCY =             -0.03



1
 SUMMARY VOLUMETRIC BUDGET FOR GSFLOW 
 DATE: 05 26 1991              CUMULATIVE TIME STEP:      26
 MODFLOW STRESS PERIOD      9     CURRENT TIME STEP:     238     ITERATIONS:       8

 -----------------------------------------------------------------------------------

   CUMULATIVE VOLUMES               L**3   RATES FOR THIS TIME STEP           L**3/T
   ------------------                      ------------------------

                                     IN                                         IN
                                     --                                         --
        PRECIPITATION =        1.4426D+07          PRECIPITATION =                  
           STREAMFLOW =                               STREAMFLOW =                  
     GW BOUNDARY FLOW =            128.34       GW BOUNDARY FLOW =              1.39


                                    OUT                                        OUT
                                    ---                                        ---
   EVAPOTRANSPIRATION =        5581537.27     EVAPOTRANSPIRATION =          76900.78
           STREAMFLOW =        6344766.36             STREAMFLOW =          37290.77
     GW BOUNDARY FLOW =           8482.58       GW BOUNDARY FLOW =             34.21

   INFLOWS - OUTFLOWS =        2491839.73     INFLOWS - OUTFLOWS =        -114224.37
             --------                                   --------

 TOTAL STORAGE CHANGE =        2412121.56         STORAGE CHANGE =        -114337.51
       --------------                             --------------
         LAND SURFACE =          55233.90           LAND SURFACE =          -8157.37
            SOIL ZONE =        4665568.63              SOIL ZONE =        -103908.18
     UNSATURATED ZONE =       -2835133.38       UNSATURATED ZONE =           -285.33
       SATURATED ZONE =         526447.55         SATURATED ZONE =          -1986.70

 OVERALL BUDGET ERROR =          79718.18           BUDGET ERROR =            113.14


  PERCENT DISCREPANCY =              0.55    PERCENT DISCREPANCY =              0.10



1
 SUMMARY VOLUMETRIC BUDGET FOR GSFLOW 
 DATE: 06 02 1991              CUMULATIVE TIME STEP:       2
 MODFLOW STRESS PERIOD     10     CURRENT TIME STEP:     245     ITERATIONS:       8

 -----------------------------------------------------------------------------------

   CUMULATIVE VOLUMES               L**3   RATES FOR THIS TIME STEP           L**3/T
   ------------------                      ------------------------

                                     IN                                         IN
                                     --                                         --
        PRECIPITATION =        1.4671D+07          PRECIPITATION =                  
           STREAMFLOW =                               STREAMFLOW =                  
     GW BOUNDARY FLOW =            138.20       GW BOUNDARY FLOW =              1.43


                                    OUT                                        OUT
                                    ---                                        ---
   EVAPOTRANSPIRATION =        6170721.34     EVAPOTRANSPIRATION =         127566.24
           STREAMFLOW =        6571370.84             STREAMFLOW =          28309.30
     GW BOUNDARY FLOW =           8720.80       GW BOUNDARY FLOW =             33.89

   INFLOWS - OUTFLOWS =        1920300.03     INFLOWS - OUTFLOWS =        -155908.00
             --------                                   --------

 TOTAL STORAGE CHANGE =        1840982.07         STORAGE CHANGE =        -155706.27
       --------------                             --------------
         LAND SURFACE =          19760.70           LAND SURFACE =          -4094.13
            SOIL ZONE =        4160871.27              SOIL ZONE =        -145896.79
     UNSATURATED ZONE =       -2849286.12       UNSATURATED ZONE =          -2981.57
       SATURATED ZONE =         509630.85         SATURATED ZONE =          -2733.84

 OVERALL BUDGET ERROR =          79317.96           BUDGET ERROR =           -201.73


  PERCENT DISCREPANCY =              0.54    PERCENT DISCREPANCY =             -0.13



1
 SUMMARY VOLUMETRIC BUDGET FOR GSFLOW 
 DATE: 06 09 1991              CUMULATIVE TIME STEP:       9
 MODFLOW STRESS PERIOD     10     CURRENT TIME STEP:     252     ITERATIONS:       7

 -----------------------------------------------------------------------------------

   CUMULATIVE VOLUMES               L**3   RATES FOR THIS TIME STEP           L**3/T
   ------------------                      ------------------------

                                     IN                                         IN
                                     --                                         --
        PRECIPITATION =        1.4671D+07          PRECIPITATION =                  
           STREAMFLOW =                               STREAMFLOW =                  
     GW BOUNDARY FLOW =            148.37       GW BOUNDARY FLOW =              1.47


                                    OUT                                        OUT
                                    ---                                        ---
   EVAPOTRANSPIRATION =        6959200.86     EVAPOTRANSPIRATION =         172470.54
           STREAMFLOW =        6729353.08             STREAMFLOW =          19032.67
     GW BOUNDARY FLOW =           8956.51       GW BOUNDARY FLOW =             33.53

   INFLOWS - OUTFLOWS =         973612.71     INFLOWS - OUTFLOWS =        -191535.27
             --------                                   --------

 TOTAL STORAGE CHANGE =         896152.98         STORAGE CHANGE =        -190786.97
       --------------                             --------------
         LAND SURFACE =           3957.39           LAND SURFACE =          -2186.13
            SOIL ZONE =        3289642.41              SOIL ZONE =        -178783.25
     UNSATURATED ZONE =       -2884223.05       UNSATURATED ZONE =          -6064.95
       SATURATED ZONE =         486770.34         SATURATED ZONE =          -3752.72

 OVERALL BUDGET ERROR =          77459.73           BUDGET ERROR =           -748.30


  PERCENT DISCREPANCY =              0.53    PERCENT DISCREPANCY =             -0.39



1
 SUMMARY VOLUMETRIC BUDGET FOR GSFLOW 
 DATE: 06 16 1991              CUMULATIVE TIME STEP:      16
 MODFLOW STRESS PERIOD     10     CURRENT TIME STEP:     259     ITERATIONS:       6

 -----------------------------------------------------------------------------------

   CUMULATIVE VOLUMES               L**3   RATES FOR THIS TIME STEP           L**3/T
   ------------------                      ------------------------

                                     IN                                         IN
                                     --                                         --
        PRECIPITATION =        1.4671D+07          PRECIPITATION =                  
           STREAMFLOW =                               STREAMFLOW =                  
     GW BOUNDARY FLOW =            158.84       GW BOUNDARY FLOW =              1.52


                                    OUT                                        OUT
                                    ---                                        ---
   EVAPOTRANSPIRATION =        7975835.42     EVAPOTRANSPIRATION =         117014.81
           STREAMFLOW =        6832087.62             STREAMFLOW =          12777.49
     GW BOUNDARY FLOW =           9188.69       GW BOUNDARY FLOW =             33.05

   INFLOWS - OUTFLOWS =        -145978.09     INFLOWS - OUTFLOWS =        -129823.84
             --------                                   --------

 TOTAL STORAGE CHANGE =        -217987.76         STORAGE CHANGE =        -129039.35
       --------------                             --------------
         LAND SURFACE =            106.65           LAND SURFACE =            -66.98
            SOIL ZONE =        2293396.22              SOIL ZONE =        -107773.24
     UNSATURATED ZONE =       -2966356.90       UNSATURATED ZONE =         -15782.10
       SATURATED ZONE =         454859.83         SATURATED ZONE =          -5417.11

 OVERALL BUDGET ERROR =          72009.67           BUDGET ERROR =           -784.49


  PERCENT DISCREPANCY =              0.48    PERCENT DISCREPANCY =             -0.61



1
 SUMMARY VOLUMETRIC BUDGET FOR GSFLOW 
 DATE: 06 23 1991              CUMULATIVE TIME STEP:      23
 MODFLOW STRESS PERIOD     10     CURRENT TIME STEP:     266     ITERATIONS:       7

 -----------------------------------------------------------------------------------

   CUMULATIVE VOLUMES               L**3   RATES FOR THIS TIME STEP           L**3/T
   ------------------                      ------------------------

                                     IN                                         IN
                                     --                                         --
        PRECIPITATION =        1.4671D+07          PRECIPITATION =                  
           STREAMFLOW =                               STREAMFLOW =                  
     GW BOUNDARY FLOW =            169.62       GW BOUNDARY FLOW =              1.56


                                    OUT                                        OUT
                                    ---                                        ---
   EVAPOTRANSPIRATION =        8518351.95     EVAPOTRANSPIRATION =          38762.79
           STREAMFLOW =        6914672.92             STREAMFLOW =          12036.55
     GW BOUNDARY FLOW =           9419.37       GW BOUNDARY FLOW =             32.93

   INFLOWS - OUTFLOWS =        -771299.81     INFLOWS - OUTFLOWS =         -50830.70
             --------                                   --------

 TOTAL STORAGE CHANGE =        -839253.28         STORAGE CHANGE =         -50560.50
       --------------                             --------------
         LAND SURFACE =             16.57           LAND SURFACE =             -3.65
            SOIL ZONE =        1826699.02              SOIL ZONE =         -31387.63
     UNSATURATED ZONE =       -3076978.18       UNSATURATED ZONE =         -12801.24
       SATURATED ZONE =         411002.32         SATURATED ZONE =          -6368.06

 OVERALL BUDGET ERROR =          67953.47           BUDGET ERROR =           -270.21


  PERCENT DISCREPANCY =              0.44    PERCENT DISCREPANCY =             -0.53



1
 SUMMARY VOLUMETRIC BUDGET FOR GSFLOW 
 DATE: 06 30 1991              CUMULATIVE TIME STEP:      30
 MODFLOW STRESS PERIOD     10     CURRENT TIME STEP:     273     ITERATIONS:       8

 -----------------------------------------------------------------------------------

   CUMULATIVE VOLUMES               L**3   RATES FOR THIS TIME STEP           L**3/T
   ------------------                      ------------------------

                                     IN                                         IN
[...]
   ------------------                      ------------------------

                                     IN                                         IN
                                     --                                         --
        PRECIPITATION =        1.3351D+08          PRECIPITATION =                  
           STREAMFLOW =                               STREAMFLOW =                  
     GW BOUNDARY FLOW =           5625.61       GW BOUNDARY FLOW =              3.53


                                    OUT                                        OUT
                                    ---                                        ---
   EVAPOTRANSPIRATION =        7.3398D+07     EVAPOTRANSPIRATION =          63194.09
           STREAMFLOW =        7.2034D+07             STREAMFLOW =           6663.06
     GW BOUNDARY FLOW =          51123.81       GW BOUNDARY FLOW =             24.00

   INFLOWS - OUTFLOWS =       -1.1969D+07     INFLOWS - OUTFLOWS =         -69877.62
             --------                                   --------

 TOTAL STORAGE CHANGE =       -1.2392D+07         STORAGE CHANGE =         -69846.74
       --------------                             --------------
         LAND SURFACE =         114525.52           LAND SURFACE =          -7766.54
            SOIL ZONE =        1049032.58              SOIL ZONE =         -43570.11
     UNSATURATED ZONE =         -71944.21       UNSATURATED ZONE =         -10578.03
       SATURATED ZONE =       -1.3484D+07         SATURATED ZONE =          -7932.73

 OVERALL BUDGET ERROR =         423322.38           BUDGET ERROR =            -30.88


  PERCENT DISCREPANCY =              0.29    PERCENT DISCREPANCY =             -0.04



1
 SUMMARY VOLUMETRIC BUDGET FOR GSFLOW 
 DATE: 09 10 1995              CUMULATIVE TIME STEP:      10
 MODFLOW STRESS PERIOD     61     CURRENT TIME STEP:    1806     ITERATIONS:       7

 -----------------------------------------------------------------------------------

   CUMULATIVE VOLUMES               L**3   RATES FOR THIS TIME STEP           L**3/T
   ------------------                      ------------------------

                                     IN                                         IN
                                     --                                         --
        PRECIPITATION =        1.3351D+08          PRECIPITATION =                  
           STREAMFLOW =                               STREAMFLOW =                  
     GW BOUNDARY FLOW =           5650.68       GW BOUNDARY FLOW =              3.62


                                    OUT                                        OUT
                                    ---                                        ---
   EVAPOTRANSPIRATION =        7.3752D+07     EVAPOTRANSPIRATION =          47292.83
           STREAMFLOW =        7.2082D+07             STREAMFLOW =           6699.54
     GW BOUNDARY FLOW =          51291.96       GW BOUNDARY FLOW =             24.01

   INFLOWS - OUTFLOWS =       -1.2371D+07     INFLOWS - OUTFLOWS =         -54012.76
             --------                                   --------

 TOTAL STORAGE CHANGE =       -1.2794D+07         STORAGE CHANGE =         -53989.46
       --------------                             --------------
         LAND SURFACE =          75925.35           LAND SURFACE =          -4673.87
            SOIL ZONE =         809020.58              SOIL ZONE =         -31431.01
     UNSATURATED ZONE =        -143899.58       UNSATURATED ZONE =         -10348.19
       SATURATED ZONE =       -1.3535D+07         SATURATED ZONE =          -7537.06

 OVERALL BUDGET ERROR =         423178.64           BUDGET ERROR =            -23.30


  PERCENT DISCREPANCY =              0.29    PERCENT DISCREPANCY =             -0.04



1
 SUMMARY VOLUMETRIC BUDGET FOR GSFLOW 
 DATE: 09 17 1995              CUMULATIVE TIME STEP:      17
 MODFLOW STRESS PERIOD     61     CURRENT TIME STEP:    1813     ITERATIONS:       7

 -----------------------------------------------------------------------------------

   CUMULATIVE VOLUMES               L**3   RATES FOR THIS TIME STEP           L**3/T
   ------------------                      ------------------------

                                     IN                                         IN
                                     --                                         --
        PRECIPITATION =        1.3351D+08          PRECIPITATION =                  
           STREAMFLOW =                               STREAMFLOW =                  
     GW BOUNDARY FLOW =           5676.38       GW BOUNDARY FLOW =              3.71


                                    OUT                                        OUT
                                    ---                                        ---
   EVAPOTRANSPIRATION =        7.4133D+07     EVAPOTRANSPIRATION =          43133.67
           STREAMFLOW =        7.2121D+07             STREAMFLOW =           5874.50
     GW BOUNDARY FLOW =          51459.30       GW BOUNDARY FLOW =             23.93

   INFLOWS - OUTFLOWS =       -1.2792D+07     INFLOWS - OUTFLOWS =         -49028.39
             --------                                   --------

 TOTAL STORAGE CHANGE =       -1.3214D+07         STORAGE CHANGE =         -49005.74
       --------------                             --------------
         LAND SURFACE =          44186.54           LAND SURFACE =          -3043.17
            SOIL ZONE =         564808.77              SOIL ZONE =         -26440.84
     UNSATURATED ZONE =        -220435.29       UNSATURATED ZONE =         -10699.35
       SATURATED ZONE =       -1.3604D+07         SATURATED ZONE =          -8823.05

 OVERALL BUDGET ERROR =         422971.11           BUDGET ERROR =            -22.65


  PERCENT DISCREPANCY =              0.29    PERCENT DISCREPANCY =             -0.05



1
 SUMMARY VOLUMETRIC BUDGET FOR GSFLOW 
 DATE: 09 24 1995              CUMULATIVE TIME STEP:      24
 MODFLOW STRESS PERIOD     61     CURRENT TIME STEP:    1820     ITERATIONS:       6

 -----------------------------------------------------------------------------------

   CUMULATIVE VOLUMES               L**3   RATES FOR THIS TIME STEP           L**3/T
   ------------------                      ------------------------

                                     IN                                         IN
                                     --                                         --
        PRECIPITATION =        1.3351D+08          PRECIPITATION =                  
           STREAMFLOW =                               STREAMFLOW =                  
     GW BOUNDARY FLOW =           5702.68       GW BOUNDARY FLOW =              3.79


                                    OUT                                        OUT
                                    ---                                        ---
   EVAPOTRANSPIRATION =        7.4398D+07     EVAPOTRANSPIRATION =          27427.90
           STREAMFLOW =        7.2163D+07             STREAMFLOW =           6513.78
     GW BOUNDARY FLOW =          51626.78       GW BOUNDARY FLOW =             23.97

   INFLOWS - OUTFLOWS =       -1.3099D+07     INFLOWS - OUTFLOWS =         -33961.86
             --------                                   --------

 TOTAL STORAGE CHANGE =       -1.3521D+07         STORAGE CHANGE =         -33949.79
       --------------                             --------------
         LAND SURFACE =          28055.76           LAND SURFACE =          -1559.79
            SOIL ZONE =         409289.22              SOIL ZONE =         -15434.95
     UNSATURATED ZONE =        -292458.04       UNSATURATED ZONE =          -9215.93
       SATURATED ZONE =       -1.3667D+07         SATURATED ZONE =          -7739.79

 OVERALL BUDGET ERROR =         422825.04           BUDGET ERROR =            -12.07


  PERCENT DISCREPANCY =              0.29    PERCENT DISCREPANCY =             -0.04



1
 SUMMARY VOLUMETRIC BUDGET FOR GSFLOW 
 DATE: 10 01 1995              CUMULATIVE TIME STEP:       1
 MODFLOW STRESS PERIOD     62     CURRENT TIME STEP:    1827     ITERATIONS:       6

 -----------------------------------------------------------------------------------

   CUMULATIVE VOLUMES               L**3   RATES FOR THIS TIME STEP           L**3/T
   ------------------                      ------------------------

                                     IN                                         IN
                                     --                                         --
        PRECIPITATION =        1.3351D+08          PRECIPITATION =                  
           STREAMFLOW =                               STREAMFLOW =                  
     GW BOUNDARY FLOW =           5729.56       GW BOUNDARY FLOW =              3.87


                                    OUT                                        OUT
                                    ---                                        ---
   EVAPOTRANSPIRATION =        7.4514D+07     EVAPOTRANSPIRATION =          16757.74
           STREAMFLOW =        7.2216D+07             STREAMFLOW =           7501.83
     GW BOUNDARY FLOW =          51795.16       GW BOUNDARY FLOW =             24.06

   INFLOWS - OUTFLOWS =       -1.3267D+07     INFLOWS - OUTFLOWS =         -24279.75
             --------                                   --------

 TOTAL STORAGE CHANGE =       -1.3690D+07         STORAGE CHANGE =         -24274.51
       --------------                             --------------
         LAND SURFACE =          22241.70           LAND SURFACE =           -699.89
            SOIL ZONE =         346655.37              SOIL ZONE =          -9153.80
     UNSATURATED ZONE =        -350235.05       UNSATURATED ZONE =          -8093.25
       SATURATED ZONE =       -1.3709D+07         SATURATED ZONE =          -6328.25

 OVERALL BUDGET ERROR =         422780.97           BUDGET ERROR =             -5.24


  PERCENT DISCREPANCY =              0.29    PERCENT DISCREPANCY =             -0.02



1
 SUMMARY VOLUMETRIC BUDGET FOR GSFLOW 
 DATE: 10 08 1995              CUMULATIVE TIME STEP:       8
 MODFLOW STRESS PERIOD     62     CURRENT TIME STEP:    1834     ITERATIONS:       6

 -----------------------------------------------------------------------------------

   CUMULATIVE VOLUMES               L**3   RATES FOR THIS TIME STEP           L**3/T
   ------------------                      ------------------------

                                     IN                                         IN
                                     --                                         --
        PRECIPITATION =        1.3351D+08          PRECIPITATION =                  
           STREAMFLOW =                               STREAMFLOW =                  
     GW BOUNDARY FLOW =           5756.98       GW BOUNDARY FLOW =              3.95


                                    OUT                                        OUT
                                    ---                                        ---
   EVAPOTRANSPIRATION =        7.4637D+07     EVAPOTRANSPIRATION =          15488.21
           STREAMFLOW =        7.2267D+07             STREAMFLOW =           7407.45
     GW BOUNDARY FLOW =          51963.48       GW BOUNDARY FLOW =             24.06

   INFLOWS - OUTFLOWS =       -1.3441D+07     INFLOWS - OUTFLOWS =         -22915.77
             --------                                   --------

 TOTAL STORAGE CHANGE =       -1.3864D+07         STORAGE CHANGE =         -22909.77
       --------------                             --------------
         LAND SURFACE =          18179.46           LAND SURFACE =           -628.45
            SOIL ZONE =         279473.92              SOIL ZONE =          -8135.93
     UNSATURATED ZONE =        -404996.28       UNSATURATED ZONE =          -7462.92
       SATURATED ZONE =       -1.3757D+07         SATURATED ZONE =          -6683.15

 OVERALL BUDGET ERROR =         422724.01           BUDGET ERROR =             -6.01


  PERCENT DISCREPANCY =              0.29    PERCENT DISCREPANCY =             -0.03



1
 SUMMARY VOLUMETRIC BUDGET FOR GSFLOW 
 DATE: 10 15 1995              CUMULATIVE TIME STEP:      15
 MODFLOW STRESS PERIOD     62     CURRENT TIME STEP:    1841     ITERATIONS:       5

 -----------------------------------------------------------------------------------

   CUMULATIVE VOLUMES               L**3   RATES FOR THIS TIME STEP           L**3/T
   ------------------                      ------------------------

                                     IN                                         IN
                                     --                                         --
        PRECIPITATION =        1.3351D+08          PRECIPITATION =                  
           STREAMFLOW =                               STREAMFLOW =                  
     GW BOUNDARY FLOW =           5784.89       GW BOUNDARY FLOW =              4.02


                                    OUT                                        OUT
                                    ---                                        ---
   EVAPOTRANSPIRATION =        7.4753D+07     EVAPOTRANSPIRATION =          18078.29
           STREAMFLOW =        7.2317D+07             STREAMFLOW =           6992.07
     GW BOUNDARY FLOW =          52131.78       GW BOUNDARY FLOW =             24.03

   INFLOWS - OUTFLOWS =       -1.3607D+07     INFLOWS - OUTFLOWS =         -25090.38
             --------                                   --------

 TOTAL STORAGE CHANGE =       -1.4030D+07         STORAGE CHANGE =         -25082.01
       --------------                             --------------
         LAND SURFACE =          14037.99           LAND SURFACE =           -696.58
            SOIL ZONE =         218935.75              SOIL ZONE =          -9198.75
     UNSATURATED ZONE =        -454843.15       UNSATURATED ZONE =          -6970.39
       SATURATED ZONE =       -1.3809D+07         SATURATED ZONE =          -8216.97

 OVERALL BUDGET ERROR =         422659.32           BUDGET ERROR =             -8.36


  PERCENT DISCREPANCY =              0.29    PERCENT DISCREPANCY =             -0.03



1
 SUMMARY VOLUMETRIC BUDGET FOR GSFLOW 
 DATE: 10 22 1995              CUMULATIVE TIME STEP:      22
 MODFLOW STRESS PERIOD     62     CURRENT TIME STEP:    1848     ITERATIONS:       7

 -----------------------------------------------------------------------------------

   CUMULATIVE VOLUMES               L**3   RATES FOR THIS TIME STEP           L**3/T
   ------------------                      ------------------------

                                     IN                                         IN
                                     --                                         --
        PRECIPITATION =        1.3351D+08          PRECIPITATION =                  
           STREAMFLOW =                               STREAMFLOW =                  
     GW BOUNDARY FLOW =           5813.26       GW BOUNDARY FLOW =              4.08


                                    OUT                                        OUT
                                    ---                                        ---
   EVAPOTRANSPIRATION =        7.4856D+07     EVAPOTRANSPIRATION =           4703.08
           STREAMFLOW =        7.2367D+07             STREAMFLOW =           8155.74
     GW BOUNDARY FLOW =          52300.11       GW BOUNDARY FLOW =             24.14

   INFLOWS - OUTFLOWS =       -1.3762D+07     INFLOWS - OUTFLOWS =         -12878.88
             --------                                   --------

 TOTAL STORAGE CHANGE =       -1.4184D+07         STORAGE CHANGE =         -12879.61
       --------------                             --------------
         LAND SURFACE =          10452.80           LAND SURFACE =             -6.45
            SOIL ZONE =         168068.47              SOIL ZONE =          -2048.71
     UNSATURATED ZONE =        -501465.82       UNSATURATED ZONE =          -6193.06
       SATURATED ZONE =       -1.3862D+07         SATURATED ZONE =          -4632.06

 OVERALL BUDGET ERROR =         422606.43           BUDGET ERROR =              0.72


  PERCENT DISCREPANCY =              0.29    PERCENT DISCREPANCY =              0.01



1
 SUMMARY VOLUMETRIC BUDGET FOR GSFLOW 
 DATE: 10 29 1995              CUMULATIVE TIME STEP:      29
 MODFLOW STRESS PERIOD     62     CURRENT TIME STEP:    1855     ITERATIONS:      14

 -----------------------------------------------------------------------------------

   CUMULATIVE VOLUMES               L**3   RATES FOR THIS TIME STEP           L**3/T
   ------------------                      ------------------------

                                     IN                                         IN
                                     --                                         --
        PRECIPITATION =        1.3351D+08          PRECIPITATION =                  
           STREAMFLOW =                               STREAMFLOW =                  
     GW BOUNDARY FLOW =           5842.05       GW BOUNDARY FLOW =              4.14


                                    OUT                                        OUT
                                    ---                                        ---
   EVAPOTRANSPIRATION =        7.4922D+07     EVAPOTRANSPIRATION =          11331.57
           STREAMFLOW =        7.2422D+07             STREAMFLOW =           7497.98
     GW BOUNDARY FLOW =          52468.86       GW BOUNDARY FLOW =             24.09

   INFLOWS - OUTFLOWS =       -1.3882D+07     INFLOWS - OUTFLOWS =         -18849.50
             --------                                   --------

 TOTAL STORAGE CHANGE =       -1.4304D+07         STORAGE CHANGE =         -18843.08
       --------------                             --------------
         LAND SURFACE =           9254.99           LAND SURFACE =           -359.13
            SOIL ZONE =         138095.49              SOIL ZONE =          -5038.68
     UNSATURATED ZONE =        -545631.08       UNSATURATED ZONE =          -6240.69
       SATURATED ZONE =       -1.3907D+07         SATURATED ZONE =          -7205.25

 OVERALL BUDGET ERROR =         422579.83           BUDGET ERROR =             -6.42


  PERCENT DISCREPANCY =              0.29    PERCENT DISCREPANCY =             -0.03



 Number of time steps:   1857;  Number of non-convergence:   0
 MF iterations:         11846;  SZ iterations:           11824
 Average MF iterations:  6.38;  Average SZ iterations:    6.37
 Maximum MF iterations:    72;  Maximum SZ iterations:      50

mxsziter reached: 1

MF iteration distribution:      0    0   27  198  319  468  483  247   80   18
                                3    2    3    2    1    2    1    0    0    0
                                0    0    0    1    0    0    0    0    1    0
                                0    0    0    0    0    0    0    0    0    0
                                0    0    0    0    0    0    0    0    0    0
                                0    0    0    0    0    0    0    0    0    0
                                0    0    0    0    0    0    0    0    0    0
                                0    1    0    0    0    0    0    0    0    0

SZ computation distribution:    0    0   27  198  319  468  483  247   80   18
                                3    2    3    2    1    2    1    0    0    0
                                0    0    0    1    0    0    0    0    1    0
                                0    0    0    0    0    0    0    0    0    0
                                0    0    0    0    0    0    0    0    0    1
                                0    0    0    0    0    0    0    0    0    0
                                0    0    0    0    0    0    0    0    0    0
                                0    0    0    0    0    0    0    0    0    0

