==========================================================================
Command line: 
..\..\..\bin\gsflow  .\prms_map_results.control

number of command line words: 2

Executable: ..\..\..\bin\gsflow

==========================================================================
Control File: .\prms_map_results.control
==========================================================================


                          U.S. Geological Survey
        Coupled Groundwater and Surface-water FLOW model (GSFLOW)
                         Version: 2.3.0 02/23/2023

    An integration of the Precipitation-Runoff Modeling System (PRMS)
    and the Modular Groundwater Model (MODFLOW-NWT and MODFLOW-2005)

Execution start date and time (yyyy/mm/dd hh:mm:ss) 2023/02/24 21:12:26


               Precipitation-Runoff Modeling System (PRMS)
                       Version 5.3.0 02/23/2023

        Process            Available Modules
--------------------------------------------------------------------
  Basin Definition: basin
    Cascading Flow: cascade
  Time Series Data: obs, water_use_read, dynamic_param_read
                    dynamic_soil_param_read
   Potet Solar Rad: soltab
  Temperature Dist: temp_1sta, temp_laps, temp_dist2, climate_hru,
                    temp_map
       Precip Dist: precip_1sta, precip_laps, precip_dist2,
                    climate_hru, precip_map
Temp & Precip Dist: xyz_dist, ide_dist
    Solar Rad Dist: ccsolrad, ddsolrad, climate_hru, cloud_cover
Transpiration Dist: transp_tindex, climate_hru, transp_frost
      Potential ET: potet_hamon, potet_jh, potet_pan, climate_hru,
                    potet_hs, potet_pt, potet_pm, potet_pm_sta
      Interception: intcp
Snow & Glacr Dynam: snowcomp, glacr_melt
    Surface Runoff: srunoff_smidx, srunoff_carea
         Soil Zone: soilzone, soilzone_ag
       Groundwater: gwflow
Streamflow Routing: strmflow, strmflow_in_out, muskingum,
                    muskingum_lake, muskingum_mann, segment_to_hru
Streamflow Charact: strmflow_character
Stream Temperature: stream_temp
    Output Summary: basin_sum, subbasin, map_results, prms_summary,
                    nhru_summary, nsub_summary, water_balance
                    basin_summary, nsegment_summary, statvar_out
     Preprocessing: write_climate_hru, frost_date
--------------------------------------------------------------------


==========================================================================
Please give careful consideration to fixing all ERROR and WARNING messages
==========================================================================


    Active modules listed in the order in which they are called

        Process                    Module         Version Date
==============================================================
PRMS Computation Order          gsflow_prms         2023-02-23
Read Control File               read_control_file   2022-10-20
Read Parameter File             read_parameter_file 2022-01-12
Read Data File                  read_data_file      2022-06-02
Basin Definition                basin               2023-01-11
Cascading Flow                  cascade             2021-11-19
Common States and Fluxes        climateflow         2023-01-11
Potential Solar Radiation       soltab              2022-10-24
Time Series Data                obs                 2022-09-07
Timestep Control                prms_time           2022-04-21
Temperature Distribution        temp_1sta           2022-09-08
Precipitation Distribution      precip_1sta         2022-09-07
Solar Radiation Distribution    ddsolrad            2022-09-01
Transpiration Distribution      transp_tindex       2021-09-07
Potential Evapotranspiration    potet_jh            2021-11-19
Canopy Interception             intcp               2022-10-26
Snow Dynamics                   snowcomp            2023-02-08
Surface Runoff                  srunoff_smidx       2023-02-23
Soilzone Computations           soilzone            2023-02-23
Groundwater                     gwflow              2022-04-21
Streamflow Routing              strmflow            2021-11-19
Output Summary                  basin_sum           2022-09-01
Output Summary                  map_results         2022-04-22
Output Summary                  subbasin            2022-09-07
Output Summary                  nsub_summary        2022-09-07
 Parameter: hru_subbasin declared more than once
 First declared by module: subbasin
 Also declared by module: nsub_summary
 Model uses values based on first declare
Statistics Variables Output     statvar_out         2021-09-08
WARNING, parameter: gvr_hru_pct is ignored as it is not used
==============================================================

Using Control File: .\prms_map_results.control


Using Parameter File: ..\input\prms\prms.params


Writing PRMS Water Budget File: ..\output\prms\sagehen_prms_map.out

 WARNING, pref_flow_infil_frac not specified, substituting pref_flow_den
  
 WARNING, parameter: pref_flow_infil_frac is not specified
          Set to default value:  -1.000000    

Simulation time period: 1980/10/01 - 1996/09/30

==========================================================================


                          ===========================
                          Normal completion of GSFLOW
                          ===========================

Execution start date and time (yyyy/mm/dd hh:mm:ss) 2023/02/24 21:12:26

Execution end   date and time (yyyy/mm/dd hh:mm:ss) 2023/02/24 21:12:27

Execution elapsed time    0 minutes  1.17 seconds

