                                  MODFLOW-NWT-SWR1 
      U.S. GEOLOGICAL SURVEY MODULAR FINITE-DIFFERENCE GROUNDWATER-FLOW MODEL
                            VERSION 1.2.0 03/01/2020
                    BASED ON MODFLOW-2005 VERSION 1.12.00 02/03/2017

 LIST FILE: .\output\SFR_LAK_floodplain.lst
                         UNIT    9

 OPENING .\input\SFR_LAK_floodplain.ba6
 FILE TYPE:BAS6   UNIT   75   STATUS:OLD    
 FORMAT:FORMATTED              ACCESS:SEQUENTIAL          

 OPENING .\input\SFR_LAK_floodplain.upw
 FILE TYPE:UPW   UNIT    7   STATUS:OLD    
 FORMAT:FORMATTED              ACCESS:SEQUENTIAL          

 OPENING .\input\SFR_LAK_floodplain.dis
 FILE TYPE:DIS   UNIT    8   STATUS:OLD    
 FORMAT:FORMATTED              ACCESS:SEQUENTIAL          

 OPENING .\input\SFR_LAK_floodplain.nwt
 FILE TYPE:NWT   UNIT   13   STATUS:OLD    
 FORMAT:FORMATTED              ACCESS:SEQUENTIAL          

 OPENING .\input\SFR_LAK_floodplain.oc
 FILE TYPE:OC   UNIT   14   STATUS:OLD    
 FORMAT:FORMATTED              ACCESS:SEQUENTIAL          

 OPENING .\input\SFR_LAK_floodplain.sfr
 FILE TYPE:SFR   UNIT   15   STATUS:OLD    
 FORMAT:FORMATTED              ACCESS:SEQUENTIAL          

 OPENING .\input\SFR_LAK_floodplain.wel
 FILE TYPE:WEL   UNIT   16   STATUS:OLD    
 FORMAT:FORMATTED              ACCESS:SEQUENTIAL          

 OPENING .\input\SFR_LAK_floodplain.ghb
 FILE TYPE:GHB   UNIT   17   STATUS:OLD    
 FORMAT:FORMATTED              ACCESS:SEQUENTIAL          

 OPENING .\input\SFR_LAK_floodplain.uzf
 FILE TYPE:UZF   UNIT   19   STATUS:OLD    
 FORMAT:FORMATTED              ACCESS:SEQUENTIAL          

 OPENING .\input\SFR_LAK_floodplain.gag
 FILE TYPE:GAGE   UNIT   32   STATUS:OLD    
 FORMAT:FORMATTED              ACCESS:SEQUENTIAL          

 OPENING .\input\SFR_LAK_floodplain.lak
 FILE TYPE:LAK   UNIT   33   STATUS:OLD    
 FORMAT:FORMATTED              ACCESS:SEQUENTIAL          

 OPENING .\input\SFR_LAK_floodplain.tab
 FILE TYPE:DATA   UNIT   55   STATUS:UNKNOWN
 FORMAT:FORMATTED              ACCESS:SEQUENTIAL          

 OPENING .\input\SFR_LAK_floodplain_bath.txt
 FILE TYPE:DATA   UNIT   57   STATUS:UNKNOWN
 FORMAT:FORMATTED              ACCESS:SEQUENTIAL          

 OPENING .\output\SFR_LAK_floodplainhd.out
 FILE TYPE:DATA   UNIT   58   STATUS:UNKNOWN
 FORMAT:FORMATTED              ACCESS:SEQUENTIAL          

 OPENING .\output\SFR_LAK_floodplain.uzfot
 FILE TYPE:DATA(BINARY)   UNIT   61   STATUS:UNKNOWN
 FORMAT:UNFORMATTED            ACCESS:STREAM              

 OPENING .\output\SFR_LAK_floodplain.uzf1
 FILE TYPE:DATA   UNIT   65   STATUS:UNKNOWN
 FORMAT:FORMATTED              ACCESS:SEQUENTIAL          

 OPENING .\output\SFR_LAK_floodplain.uzf2
 FILE TYPE:DATA   UNIT   66   STATUS:UNKNOWN
 FORMAT:FORMATTED              ACCESS:SEQUENTIAL          

 OPENING .\output\SFR_LAK_floodplain.uzf3
 FILE TYPE:DATA   UNIT   67   STATUS:UNKNOWN
 FORMAT:FORMATTED              ACCESS:SEQUENTIAL          

 OPENING .\output\SFR_LAK_floodplain.uzf4
 FILE TYPE:DATA   UNIT   68   STATUS:UNKNOWN
 FORMAT:FORMATTED              ACCESS:SEQUENTIAL          

 OPENING .\output\SFR_LAK_floodplain.flw
 FILE TYPE:DATA   UNIT   81   STATUS:UNKNOWN
 FORMAT:FORMATTED              ACCESS:SEQUENTIAL          

 OPENING .\output\SFR_LAK_floodplain.sg1
 FILE TYPE:DATA   UNIT   83   STATUS:UNKNOWN
 FORMAT:FORMATTED              ACCESS:SEQUENTIAL          

 OPENING .\output\SFR_LAK_floodplain.sg2
 FILE TYPE:DATA   UNIT   84   STATUS:UNKNOWN
 FORMAT:FORMATTED              ACCESS:SEQUENTIAL          

 OPENING .\output\SFR_LAK_floodplain.lg1
 FILE TYPE:DATA   UNIT  801   STATUS:UNKNOWN
 FORMAT:FORMATTED              ACCESS:SEQUENTIAL          

 BAS -- BASIC PACKAGE, VERSION 1.1.4, 4/01/2018 INPUT READ FROM UNIT   75
 
 MODFLOW was compiled using mixed precision
 Precision of REAL variables:           6
 Precision of DOUBLE PRECISION variables:          15

 DISCRETIZATION INPUT DATA READ FROM UNIT    8
 #Test problem 2-- Discretization input
 #Example problem using the UZF1 Package
    2 LAYERS        15 ROWS        10 COLUMNS
   12 STRESS PERIOD(S) IN SIMULATION
 MODEL TIME UNIT IS SECONDS
 MODEL LENGTH UNIT IS FEET
  Confining bed flag for each layer:
   0   0

                     DELR =   5000.00    

                     DELC =   5000.00    



           TOP ELEVATION OF LAYER 1
 READING ON UNIT    8 WITH FORMAT: (10F7.0)            

            1           2           3           4           5           6           7           8           9          10
 ........................................................................................................................
   1    1105.       1105.       0.000       0.000       0.000       0.000       0.000       0.000       0.000       0.000    
   2    1105.       1095.       1105.       0.000       0.000       1100.       1100.       1110.       0.000       0.000    
   3    0.000       1100.       1085.       1080.       1078.       1076.       1073.       1090.       0.000       0.000    
   4    1110.       1100.       1090.       1085.       1074.       1080.       1080.       1070.       1100.       0.000    
   5    1110.       1100.       1085.       1080.       1076.       1074.       1077.       1066.       1075.       1080.    
   6    1105.       1095.       1080.       1077.       1073.       1069.       1070.       1063.       1085.       1095.    
   7    1105.       1090.       1075.       1072.       1070.       1065.       1065.       1069.       1090.       0.000    
   8    0.000       1080.       1070.       1068.       1063.       1060.       1063.       1067.       1090.       0.000    
   9    0.000       1075.       1065.       1062.       1058.       1052.       1055.       1065.       1090.       0.000    
  10    0.000       1070.       1060.       1055.       1046.       1046.       1044.       1060.       1088.       1100.    
  11    0.000       1055.       1050.       1045.       1041.       1042.       1040.       1050.       1075.       0.000    
  12    1027.       1028.       1028.       1032.       1032.       1033.       1032.       1040.       1060.       0.000    
  13    997.0       1004.       1008.       1014.       1020.       1027.       1032.       1038.       1050.       0.000    
  14    0.000       1030.       1040.       1045.       1050.       1050.       1050.       1050.       1044.       0.000    
  15    0.000       0.000       1080.       1080.       1080.       1080.       0.000       0.000       0.000       0.000    



             MODEL LAYER BOTTOM EL. FOR LAYER   1
 READING ON UNIT    8 WITH FORMAT: (10F7.0)            

            1           2           3           4           5           6           7           8           9          10
 ........................................................................................................................
   1    1105.       1105.       0.000       0.000       0.000       0.000       0.000       0.000       0.000       0.000    
   2    1105.       1095.       1105.       0.000       0.000       1100.       1100.       1110.       0.000       0.000    
   3    0.000       1100.       1085.       1080.       1078.       1076.       1073.       1090.       0.000       0.000    
   4    1110.       1100.       1090.       1085.       1074.       1080.       1080.       1070.       1100.       0.000    
   5    1110.       1100.       1085.       1080.       1076.       1074.       1077.       1066.       1075.       1080.    
   6    1105.       1095.       1080.       1077.       1073.       1069.       1070.       1063.       1085.       1095.    
   7    1105.       1090.       1075.       1072.       1070.       1065.       1065.       1069.       1090.       0.000    
   8    0.000       1080.       1070.       1068.       1063.       1060.       1063.       1067.       1090.       0.000    
   9    0.000       1075.       1065.       1062.       1058.       1052.       1055.       1065.       1090.       0.000    
  10    0.000       1070.       1060.       1055.       1046.       1046.       1044.       1060.       1088.       1100.    
  11    0.000       1055.       1050.       1045.       1041.       1042.       1040.       1050.       1075.       0.000    
  12    1027.       1028.       1028.       1032.       1032.       1033.       1032.       1040.       1060.       0.000    
  13    997.0       1004.       1008.       1014.       1020.       1027.       1032.       1038.       1050.       0.000    
  14    0.000       1030.       1040.       1045.       1050.       1050.       1050.       1050.       1044.       0.000    
  15    0.000       0.000       1080.       1080.       1080.       1080.       0.000       0.000       0.000       0.000    



             MODEL LAYER BOTTOM EL. FOR LAYER   2
 READING ON UNIT    8 WITH FORMAT: (10F7.0)            

            1           2           3           4           5           6           7           8           9          10
 ........................................................................................................................
   1    1000.       1000.       0.000       0.000       0.000       0.000       0.000       0.000       0.000       0.000    
   2    1000.       900.0       900.0       0.000       0.000       950.0       950.0       950.0       0.000       0.000    
   3    0.000       850.0       670.0       680.0       680.0       770.0       770.0       890.0       0.000       0.000    
   4    925.0       850.0       650.0       650.0       650.0       680.0       740.0       850.0       950.0       0.000    
   5    925.0       800.0       650.0       600.0       600.0       600.0       650.0       720.0       850.0       950.0    
   6    925.0       800.0       650.0       600.0       550.0       600.0       650.0       720.0       850.0       970.0    
   7    925.0       800.0       650.0       600.0       550.0       600.0       650.0       720.0       950.0       0.000    
   8    0.000       850.0       700.0       650.0       570.0       600.0       700.0       850.0       950.0       0.000    
   9    0.000       850.0       700.0       650.0       540.0       580.0       700.0       850.0       950.0       0.000    
  10    0.000       850.0       700.0       630.0       530.0       580.0       650.0       800.0       900.0       950.0    
  11    0.000       850.0       700.0       620.0       580.0       620.0       700.0       800.0       900.0       0.000    
  12    900.0       830.0       710.0       640.0       600.0       650.0       700.0       800.0       900.0       0.000    
  13    900.0       810.0       750.0       700.0       650.0       700.0       750.0       800.0       900.0       0.000    
  14    0.000       950.0       850.0       850.0       850.0       850.0       850.0       850.0       850.0       0.000    
  15    0.000       0.000       950.0       950.0       950.0       950.0       0.000       0.000       0.000       0.000    


 STRESS PERIOD     LENGTH       TIME STEPS     MULTIPLIER FOR DELT    SS FLAG
 ----------------------------------------------------------------------------
        1         2628000.          1                    1.000         SS
        2         2628000.         15                    1.000         TR
        3         2628000.         15                    1.000         TR
        4         2628000.         15                    1.000         TR
        5         2628000.         15                    1.000         TR
        6         2628000.         15                    1.000         TR
        7         2628000.         15                    1.000         TR
        8         2628000.         15                    1.000         TR
        9         2628000.         15                    1.000         TR
       10         2628000.         15                    1.000         TR
       11         2628000.         15                    1.000         TR
       12        2.1024000E+07    120                    1.000         TR

 COMBINED STEADY-STATE AND TRANSIENT SIMULATION



 
 #Test Simulation 2-- Example problem using the UZF1 Package                     
 #Modified from example Problem 1 of SFR1 documentation report                   
 THE FREE FORMAT OPTION HAS BEEN SELECTED



                     BOUNDARY ARRAY FOR LAYER   1
 READING ON UNIT   75 WITH FORMAT: (20I4)              

                1           2           3           4           5           6           7           8           9          10
 ............................................................................................................................
   1            0           0           0           0           0           0           0           0           0           0
   2            0           0           0           0           0           0           0           0           0           0
   3            0           0           0           0           0           0           0           0           0           0
   4            0           0           0           0           0           0           0           0           0           0
   5            0           0           0           0           0           0           0           0           0           0
   6            0           0           0           0           0           0           0           0           0           0
   7            0           0           0           0           0           0           0           0           0           0
   8            0           0           0           0           0           0           0           0           0           0
   9            0           0           0           0           0           0           0           0           0           0
  10            0           0           0           0           0           0           0           0           0           0
  11            0           0           0           0           0           0           0           0           0           0
  12            0           0           0           0           0           0           0           0           0           0
  13            0           0           0           0           0           0           0           0           0           0
  14            0           0           0           0           0           0           0           0           0           0
  15            0           0           0           0           0           0           0           0           0           0



                     BOUNDARY ARRAY FOR LAYER   2
 READING ON UNIT   75 WITH FORMAT: (20I4)              

                1           2           3           4           5           6           7           8           9          10
 ............................................................................................................................
   1            1           1           0           0           0           0           0           0           0           0
   2            1           1           1           0           0           1           1           1           0           0
   3            0           1           1           1           1           1           1           1           0           0
   4            1           1           1           1           1           1           1           1           1           0
   5            1           1           1           1           1           1           1           1           1           1
   6            1           1           1           1           1           1           1           1           1           1
   7            1           1           1           1           1           1           1           1           1           0
   8            0           1           1           1           1           1           1           1           1           0
   9            0           1           1           1           1           1           1           1           1           0
  10            0           1           1           1           1           1           1           1           1           1
  11            0           1           1           1           1           1           1           1           1           0
  12            1           1           1           1           1           1           1           1           1           0
  13            1           1           1           1           1           1           1           1           1           0
  14            0           1           1           1           1           1           1           1           1           0
  15            0           0           1           1           1           1           0           0           0           0

 AQUIFER HEAD WILL BE SET TO   6999.0     AT ALL NO-FLOW NODES (IBOUND=0).



                       INITIAL HEAD FOR LAYER   1
 READING ON UNIT   75 WITH FORMAT: (10F10.3)           

            1           2           3           4           5           6           7           8           9          10
 ........................................................................................................................
   1    1092.       1089.       6999.       6999.       6999.       6999.       6999.       6999.       6999.       6999.    
   2    1089.       1084.       1079.       6999.       6999.       1072.       1071.       1071.       6999.       6999.    
   3    6999.       1076.       1071.       1067.       1066.       1067.       1067.       1068.       6999.       6999.    
   4    1067.       1068.       1065.       1061.       1059.       1059.       1060.       1063.       1064.       6999.    
   5    1063.       1060.       1057.       1055.       1055.       1055.       1056.       1058.       1062.       1065.    
   6    1059.       1055.       1051.       1050.       1050.       1051.       1053.       1055.       1059.       1064.    
   7    1056.       1049.       1045.       1044.       1045.       1047.       1049.       1052.       1055.       6999.    
   8    6999.       1043.       1040.       1039.       1040.       1042.       1044.       1048.       1050.       6999.    
   9    6999.       1035.       1034.       1034.       1035.       1037.       1038.       1041.       1045.       6999.    
  10    6999.       1028.       1028.       1029.       1030.       1032.       1034.       1036.       1041.       1046.    
  11    6999.       1020.       1021.       1024.       1026.       1029.       1031.       1033.       1037.       6999.    
  12    1003.       1010.       1014.       1019.       1023.       1026.       1029.       1032.       1036.       6999.    
  13    996.5       1001.       1009.       1014.       1020.       1025.       1029.       1034.       1037.       6999.    
  14    6999.       1008.       1011.       1016.       1021.       1026.       1030.       1035.       1039.       6999.    
  15    6999.       6999.       1021.       1023.       1027.       1029.       6999.       6999.       6999.       6999.    



                       INITIAL HEAD FOR LAYER   2
 READING ON UNIT   75 WITH FORMAT: (10F10.3)           

            1           2           3           4           5           6           7           8           9          10
 ........................................................................................................................
   1    1092.       1089.       6999.       6999.       6999.       6999.       6999.       6999.       6999.       6999.    
   2    1089.       1084.       1079.       6999.       6999.       1072.       1071.       1071.       6999.       6999.    
   3    6999.       1076.       1071.       1067.       1066.       1067.       1067.       1068.       6999.       6999.    
   4    1067.       1068.       1065.       1061.       1059.       1059.       1060.       1063.       1064.       6999.    
   5    1063.       1060.       1057.       1055.       1055.       1055.       1056.       1058.       1062.       1065.    
   6    1059.       1055.       1051.       1050.       1050.       1051.       1053.       1055.       1059.       1064.    
   7    1056.       1049.       1045.       1044.       1045.       1047.       1049.       1052.       1055.       6999.    
   8    6999.       1043.       1040.       1039.       1040.       1042.       1044.       1048.       1050.       6999.    
   9    6999.       1035.       1034.       1034.       1035.       1037.       1038.       1041.       1045.       6999.    
  10    6999.       1028.       1028.       1029.       1030.       1032.       1034.       1036.       1041.       1046.    
  11    6999.       1020.       1021.       1024.       1026.       1029.       1031.       1033.       1037.       6999.    
  12    1003.       1010.       1014.       1019.       1023.       1026.       1029.       1032.       1036.       6999.    
  13    996.5       1001.       1009.       1014.       1020.       1025.       1029.       1034.       1037.       6999.    
  14    6999.       1008.       1011.       1016.       1021.       1026.       1030.       1035.       1039.       6999.    
  15    6999.       6999.       1021.       1023.       1027.       1029.       6999.       6999.       6999.       6999.    

 OUTPUT CONTROL IS SPECIFIED ONLY AT TIME STEPS FOR WHICH OUTPUT IS DESIRED
 HEADS WILL BE SAVED WITH FORMAT: (10F10.3)           
 SAVED HEADS WILL BE LABELED
 HEAD PRINT FORMAT CODE IS   4    DRAWDOWN PRINT FORMAT CODE IS   0
 HEADS WILL BE SAVED ON UNIT   58    DRAWDOWNS WILL BE SAVED ON UNIT    0
 # MODFLOW-NWT

 NWT1 -- Newton Solver, VERSION 1.1.4, 4/01/2018
         INPUT READ FROM UNIT 13

 SPECIFIED OPTION:
 SOLVER INPUT VALUES ARE SPECIFIED BY USER
 ***XMD linear solver will be used***
 
   CONVERGENCE CRITERION OF   0.100000E-02 FOR HEAD SOLUTION
   AND A TOLERANCE OF   0.100000E+01 FOR FLOW SOLUTION AND 
   A MAXIMUM OF   500 OUTER ITERATIONS. 


   D-B-D REDUCTION FACTOR OF    0.960000E+00 AND 
   A D-B-D INCREASE FACTOR OF    0.100000E-03 AND 
   A D-B-D RELAXATION OF    0.000000E+00 AND 
   A MOMENTUM FACTOR OF    0.100000E+00 .


 ***BACKTRACKING IS INACTIVE***
 XMD -- LINEAR SOLUTION BY XMD PACKAGE VERSION 1.30
     BY MOTOMU IBARAKI, OHIO STATE UNIVERSITY, COLOMBUS, OH
                 INPUT READ FROM UNIT 13
 ACCELERATION METHOD                    (IACL) =         1
 NODE ORDERING FLAG                   (NORDER) =         0
 LEVEL OF FILL                         (LEVEL) =         5
 MAXIMUM NUMBER OF ORTHOGONALIZATIONS  (NORTH) =         7
 INDEX FOR USING REDUCED SYSTEM      (IREDSYS) =         1
 RESID. REDUCTION CONVERGE CRITERION  (RRCTOL) =  0.000000E+00
 INDEX FOR USING DROP TOLERANCE     (IDROPTOL) =         0
 DROP TOLERANCE VALUE                  (EPSRN) =  0.500000E-02
 CONVERGENCE CRITERIA OF           (HCLOSEXMD) =  0.100000E-02
 MAX. NUMBER OF LINEAR ITERATIONS  (MXITERXMD) =        50


 UPW1 -- UPSTREAM WEIGHTING FLOW PACKAGE, VERSION 1.1.4, 4/01/2018
         INPUT READ FROM UNIT  7

 #Layer-Property Flow Package input for test simulation 2
 No named parameters

   LAYER FLAGS:
 LAYER       LAYTYP          LAYAVG    CHANI           LAYVKA           LAYWET
 ---------------------------------------------------------------------------
    1             1             0     1.000E+00             0             0
    2             1             0     1.000E+00             0             0

   INTERPRETATION OF LAYER FLAGS:
                        INTERBLOCK     HORIZONTAL    DATA IN
         LAYER TYPE   TRANSMISSIVITY   ANISOTROPY   ARRAY VKA   WETTABILITY
 LAYER   (LAYTYP)        (LAYAVG)      (CHANI)     (LAYVKA)       (LAYWET)
 ---------------------------------------------------------------------------
    1   CONVERTIBLE      HARMONIC     1.000E+00    VERTICAL K  NON-WETTABLE
    2   CONVERTIBLE      HARMONIC     1.000E+00    VERTICAL K  NON-WETTABLE



              HYD. COND. ALONG ROWS FOR LAYER   1
 READING ON UNIT    7 WITH FORMAT: (10F5.0)            

            1           2           3           4           5           6           7           8           9          10
 ........................................................................................................................
   1   3.0000E-03  3.0000E-03   0.000       0.000       0.000       0.000       0.000       0.000       0.000       0.000    
   2   6.0000E-04  3.0000E-03  3.0000E-03   0.000       0.000      6.0000E-04  6.0000E-04  6.0000E-04   0.000       0.000    
   3    0.000      6.0000E-04  3.0000E-03  3.0000E-03  6.0000E-04  6.0000E-04  6.0000E-04  6.0000E-04   0.000       0.000    
   4   6.0000E-04  6.0000E-04  6.0000E-04  3.0000E-03  3.0000E-03  3.0000E-03  6.0000E-04  6.0000E-04  6.0000E-04   0.000    
   5   6.0000E-04  6.0000E-04  6.0000E-04  3.0000E-03  3.0000E-03  3.0000E-03  3.0000E-03  3.0000E-03  3.0000E-03  3.0000E-03
   6   6.0000E-04  6.0000E-04  6.0000E-04  3.0000E-03  3.0000E-03  3.0000E-03  3.0000E-03  3.0000E-03  6.0000E-04  6.0000E-04
   7   6.0000E-04  6.0000E-04  6.0000E-04  3.0000E-03  3.0000E-03  3.0000E-03  3.0000E-03  3.0000E-03  6.0000E-04   0.000    
   8    0.000      6.0000E-04  6.0000E-04  3.0000E-03  3.0000E-03  3.0000E-03  3.0000E-03  6.0000E-04  6.0000E-04   0.000    
   9    0.000      6.0000E-04  6.0000E-04  3.0000E-03  3.0000E-03  3.0000E-03  3.0000E-03  6.0000E-04  6.0000E-04   0.000    
  10    0.000      6.0000E-04  6.0000E-04  3.0000E-03  3.0000E-03  3.0000E-03  3.0000E-03  6.0000E-04  6.0000E-04  6.0000E-04
  11    0.000      6.0000E-04  6.0000E-04  3.0000E-03  3.0000E-03  3.0000E-03  3.0000E-03  6.0000E-04  6.0000E-04   0.000    
  12   6.0000E-04  6.0000E-04  3.0000E-03  3.0000E-03  3.0000E-03  3.0000E-03  3.0000E-03  6.0000E-04  6.0000E-04   0.000    
  13   3.0000E-03  3.0000E-03  3.0000E-03  3.0000E-03  3.0000E-03  3.0000E-03  3.0000E-03  3.0000E-03  3.0000E-03   0.000    
  14    0.000      6.0000E-04  6.0000E-04  6.0000E-04  6.0000E-04  6.0000E-04  6.0000E-04  6.0000E-04  3.0000E-03   0.000    
  15    0.000       0.000      6.0000E-04  6.0000E-04  6.0000E-04  6.0000E-04   0.000       0.000       0.000       0.000    

      VERTICAL HYD. COND. =  8.000000E-05 FOR LAYER   1

         SPECIFIC STORAGE =  1.000000E-06 FOR LAYER   1



                     SPECIFIC YIELD FOR LAYER   1
 READING ON UNIT    7 WITH FORMAT: (10F5.0)            

            1           2           3           4           5           6           7           8           9          10
 ........................................................................................................................
   1   0.2000      0.2000       0.000       0.000       0.000       0.000       0.000       0.000       0.000       0.000    
   2   0.1000      0.2000      0.2000       0.000       0.000      0.1000      0.1000      0.1000       0.000       0.000    
   3    0.000      0.1000      0.2000      0.2000      0.1000      0.1000      0.1000      0.1000       0.000       0.000    
   4   0.1000      0.1000      0.1000      0.2000      0.2000      0.2000      0.1000      0.1000      0.1000       0.000    
   5   0.1000      0.1000      0.1000      0.2000      0.2000      0.2000      0.2000      0.2000      0.2000      0.2000    
   6   0.1000      0.1000      0.1000      0.2000      0.2000      0.2000      0.2000      0.2000      0.1000      0.1000    
   7   0.1000      0.1000      0.1000      0.2000      0.2000      0.2000      0.2000      0.2000      0.1000       0.000    
   8    0.000      0.1000      0.1000      0.2000      0.2000      0.2000      0.2000      0.1000      0.1000       0.000    
   9    0.000      0.1000      0.1000      0.2000      0.2000      0.2000      0.2000      0.1000      0.1000       0.000    
  10    0.000      0.1000      0.1000      0.2000      0.2000      0.2000      0.2000      0.1000      0.1000      0.1000    
  11    0.000      0.1000      0.1000      0.2000      0.2000      0.2000      0.2000      0.1000      0.1000       0.000    
  12   0.1000      0.1000      0.2000      0.2000      0.2000      0.2000      0.2000      0.1000      0.1000       0.000    
  13   0.2000      0.2000      0.2000      0.2000      0.2000      0.2000      0.2000      0.2000      0.2000       0.000    
  14    0.000      0.1000      0.1000      0.1000      0.1000      0.1000      0.1000      0.1000      0.2000       0.000    
  15    0.000       0.000      0.1000      0.1000      0.1000      0.1000       0.000       0.000       0.000       0.000    



              HYD. COND. ALONG ROWS FOR LAYER   2
 READING ON UNIT    7 WITH FORMAT: (10F5.0)            

            1           2           3           4           5           6           7           8           9          10
 ........................................................................................................................
   1   3.0000E-03  3.0000E-03   0.000       0.000       0.000       0.000       0.000       0.000       0.000       0.000    
   2   6.0000E-04  3.0000E-03  3.0000E-03   0.000       0.000      6.0000E-04  6.0000E-04  6.0000E-04   0.000       0.000    
   3    0.000      6.0000E-04  3.0000E-03  3.0000E-03  6.0000E-04  6.0000E-04  6.0000E-04  6.0000E-04   0.000       0.000    
   4   6.0000E-04  6.0000E-04  6.0000E-04  3.0000E-03  3.0000E-03  3.0000E-03  6.0000E-04  6.0000E-04  6.0000E-04   0.000    
   5   6.0000E-04  6.0000E-04  6.0000E-04  3.0000E-03  3.0000E-03  3.0000E-03  3.0000E-03  3.0000E-03  3.0000E-03  3.0000E-03
   6   6.0000E-04  6.0000E-04  6.0000E-04  3.0000E-03  3.0000E-03  3.0000E-03  3.0000E-03  3.0000E-03  6.0000E-04  6.0000E-04
   7   6.0000E-04  6.0000E-04  6.0000E-04  3.0000E-03  3.0000E-03  3.0000E-03  3.0000E-03  3.0000E-03  6.0000E-04   0.000    
   8    0.000      6.0000E-04  6.0000E-04  3.0000E-03  3.0000E-03  3.0000E-03  3.0000E-03  6.0000E-04  6.0000E-04   0.000    
   9    0.000      6.0000E-04  6.0000E-04  3.0000E-03  3.0000E-03  3.0000E-03  3.0000E-03  6.0000E-04  6.0000E-04   0.000    
  10    0.000      6.0000E-04  6.0000E-04  3.0000E-03  3.0000E-03  3.0000E-03  3.0000E-03  6.0000E-04  6.0000E-04  6.0000E-04
  11    0.000      6.0000E-04  6.0000E-04  3.0000E-03  3.0000E-03  3.0000E-03  3.0000E-03  6.0000E-04  6.0000E-04   0.000    
  12   6.0000E-04  6.0000E-04  3.0000E-03  3.0000E-03  3.0000E-03  3.0000E-03  3.0000E-03  6.0000E-04  6.0000E-04   0.000    
  13   3.0000E-03  3.0000E-03  3.0000E-03  3.0000E-03  3.0000E-03  3.0000E-03  3.0000E-03  3.0000E-03  3.0000E-03   0.000    
  14    0.000      6.0000E-04  6.0000E-04  6.0000E-04  6.0000E-04  6.0000E-04  6.0000E-04  6.0000E-04  3.0000E-03   0.000    
  15    0.000       0.000      6.0000E-04  6.0000E-04  6.0000E-04  6.0000E-04   0.000       0.000       0.000       0.000    

      VERTICAL HYD. COND. =  8.000000E-05 FOR LAYER   2

         SPECIFIC STORAGE =  1.000000E-06 FOR LAYER   2



                     SPECIFIC YIELD FOR LAYER   2
 READING ON UNIT    7 WITH FORMAT: (10F5.0)            

            1           2           3           4           5           6           7           8           9          10
 ........................................................................................................................
   1   0.2000      0.2000       0.000       0.000       0.000       0.000       0.000       0.000       0.000       0.000    
   2   0.1000      0.2000      0.2000       0.000       0.000      0.1000      0.1000      0.1000       0.000       0.000    
   3    0.000      0.1000      0.2000      0.2000      0.1000      0.1000      0.1000      0.1000       0.000       0.000    
   4   0.1000      0.1000      0.1000      0.2000      0.2000      0.2000      0.1000      0.1000      0.1000       0.000    
   5   0.1000      0.1000      0.1000      0.2000      0.2000      0.2000      0.2000      0.2000      0.2000      0.2000    
   6   0.1000      0.1000      0.1000      0.2000      0.2000      0.2000      0.2000      0.2000      0.1000      0.1000    
   7   0.1000      0.1000      0.1000      0.2000      0.2000      0.2000      0.2000      0.2000      0.1000       0.000    
   8    0.000      0.1000      0.1000      0.2000      0.2000      0.2000      0.2000      0.1000      0.1000       0.000    
   9    0.000      0.1000      0.1000      0.2000      0.2000      0.2000      0.2000      0.1000      0.1000       0.000    
  10    0.000      0.1000      0.1000      0.2000      0.2000      0.2000      0.2000      0.1000      0.1000      0.1000    
  11    0.000      0.1000      0.1000      0.2000      0.2000      0.2000      0.2000      0.1000      0.1000       0.000    
  12   0.1000      0.1000      0.2000      0.2000      0.2000      0.2000      0.2000      0.1000      0.1000       0.000    
  13   0.2000      0.2000      0.2000      0.2000      0.2000      0.2000      0.2000      0.2000      0.2000       0.000    
  14    0.000      0.1000      0.1000      0.1000      0.1000      0.1000      0.1000      0.1000      0.2000       0.000    
  15    0.000       0.000      0.1000      0.1000      0.1000      0.1000       0.000       0.000       0.000       0.000    

 WEL -- WELL PACKAGE FOR NWT VERSION 1.1.4,  4/01/2018 INPUT READ FROM UNIT   16
 #Well Package input for test simulation 2
 No named parameters
 MAXIMUM OF     10 ACTIVE WELLS AT ONE TIME
 CELL-BY-CELL FLOWS WILL BE PRINTED WHEN ICBCFL NOT 0
 No named parameters


     0 Well parameters

 GHB -- GENERAL-HEAD BOUNDARY PACKAGE, VERSION 7, 5/2/2005
         INPUT READ FROM UNIT   17
 No named parameters
 MAXIMUM OF      2 ACTIVE GHB CELLS AT ONE TIME
 CELL-BY-CELL FLOWS WILL BE PRINTED WHEN ICBCFL NOT 0


     0 GHB parameters

 SFR7 -- STREAMFLOW ROUTING PACKAGE, VERSION 1.0.5, 2012-04-05
         INPUT READ FROM UNIT  15
 #SFR2 Package input for Test Simulation 2
 No named parameters

 PROCESSING SFR2 OPTIONS
 
          1 Specified inflow files will be read with a maximum of         50 row entries per file

 END PROCESSING SFR2 OPTIONS
 


 NUMBER OF STREAM REACHES IS   38

 NUMBER OF STREAM SEGMENTS IS   10

 NUMBER OF STREAM PARAMETERS IS    0

 NUMBER OF STREAM SEGMENTS DEFINED USING PARAMETERS IS              0

 MAXIMUM ERROR FOR STREAM LEAKAGE RATES IS  1.00E-06

 CONSTANT FOR MANNINGS EQUATION IS  1.4860E+00



 STREAM OUTPUT WILL BE WRITTEN TO FILE ON UNIT   81


   STREAM NETWORK DESCRIPTION: 

   LAYER    ROW    COL   SEGMENT   REACH     LENGTH
                          NUMBER   NUMBER    IN CELL        
   --------------------------------------------------
      2      1      1       1        1    4.5000E+03
      2      2      2       1        2    7.0000E+03
      2      3      3       1        3    6.0000E+03
      2      3      4       1        4    5.5500E+03
      2      4      5       2        1    6.5000E+03
      2      5      6       2        2    5.0000E+03
      2      6      6       2        3    5.0000E+03
      2      7      6       2        4    5.0000E+03
      2      8      6       2        5    5.0000E+03
      2      3      5       3        1    5.0000E+03
      2      3      6       3        2    5.0000E+03
      2      3      7       3        3    4.5000E+03
      2      4      8       3        4    6.0000E+03
      2      5      8       3        5    5.0000E+03
      2      6      8       3        6    2.0000E+03
      2      5     10       4        1    2.5000E+03
      2      5      9       4        2    5.0000E+03
      2      6      8       4        3    3.5000E+03
      2      6      8       5        1    4.0000E+03
      2      7      7       5        2    5.0000E+03
      2      8      7       5        3    3.5000E+03
      2      8      6       5        4    2.5000E+03
      2      9      6       6        1    5.0000E+03
      2     10      7       6        2    5.0000E+03
      2     11      7       6        3    5.0000E+03
      2     12      7       6        4    5.0000E+03
      2     13      7       6        5    2.0000E+03
      2     14      9       7        1    5.0000E+03
      2     13      8       7        2    5.5000E+03
      2     13      7       7        3    5.0000E+03
      2     13      6       8        1    5.0000E+03
      2     13      5       8        2    5.0000E+03
      2     13      4       8        3    5.0000E+03
      2     13      3       8        4    5.0000E+03
      2     13      2       8        5    5.0000E+03
      2     13      1       8        6    3.0000E+03
      2      4      5       9        1    1.0000E+01
      2      4      5      10        1    1.0000E+01




 UZF1 -- UNSATURATED FLOW PACKAGE, VERSION 1.5, 09/10/2019
         INPUT READ FROM UNIT 19
 #UZF Package input for test simulation 2
 No named parameters

 PROCESSING UZF OPTIONS
 
 
 INITIAL WATER CONTENT (THTI) WILL BE 
READ FOR THE FIRST SS OR TR STRESS PERIOD
 

 END PROCESSING UZF OPTIONS



            AREAL EXTENT OF UZ FLOW
 READING ON UNIT   19 WITH FORMAT: (20I4)              

                1           2           3           4           5           6           7           8           9          10
 ............................................................................................................................
   1            2           2           0           0           0           0           0           0           0           0
   2            2           2           2           0           0           2           2           2           0           0
   3            0           2           2           2           2           2           2           2           0           0
   4            2           2           2           2           2           2           2           2           2           0
   5            2           2           2           2           2           2           2           2           2           2
   6            2           2           2           2           2           2           2           2           2           2
   7            2           2           2           2           2           2           2           2           2           0
   8            0           2           2           2           2           2           2           2           2           0
   9            0           2           2           2           2           2           2           2           2           0
  10            0           2           2           2           2           2           2           2           2           2
  11            0           2           2           2           2           2           2           2           2           0
  12            2           2           2           2           2           2           2           2           2           0
  13            2           2           2           2           2           2           2           2           2           0
  14            0           2           2           2           2           2           2           2           2           0
  15            0           0           2           2           2           2           0           0           0           0
 OPTION 3 -- RECHARGE IN UZF TO HIGHEST ACTIVE NODE IN EACH VERTICAL COLUMN



            ROUTING OVERLAND RUNOFF
 READING ON UNIT   19 WITH FORMAT: (20I4)              

                1           2           3           4           5           6           7           8           9          10
 ............................................................................................................................
   1            1           1           0           0           0           0           0           0           0           0
   2            1           1           1           0           0           3           3           3           0           0
   3            0           1           1           1           3           3           3           3           0           0
   4            8           8           2           2           2           2           2           3           3           0
   5            8           8           8           8           2           2           2           3           4           4
   6            8           8           8           8           8           2           2           4           4           4
   7            8           8           8           8           8           2           5           5           5           0
   8            0           8           8           8           8           2           5           5           5           0
   9            0           8           8           8           8           6           6           6           6           0
  10            0           8           8           8           8           6           6           6           6           6
  11            0           8           8           8           8           8           6           6           7           0
  12            8           8           8           8           8           8           6           7           7           0
  13            8           8           8           8           8           8           7           7           7           0
  14            0           8           8           8           8           8           7           7           7           0
  15            0           0           8           8           8           8           0           0           0           0

     BROOKS-COREY EPSILON =   3.50000    

  SATURATED WATER CONTENT =  0.300000    



              INITIAL WATER CONTENT
 READING ON UNIT   19 WITH FORMAT: (FREE)              

            1           2           3           4           5           6           7           8           9          10
 ........................................................................................................................
   1   0.1100      0.1100       0.000       0.000       0.000       0.000       0.000       0.000       0.000       0.000    
   2   0.2100      0.1100      0.1100       0.000       0.000      0.2100      0.2100      0.2100       0.000       0.000    
   3    0.000      0.2100      0.1100      0.1100      0.2100      0.2100      0.2100      0.2100       0.000       0.000    
   4   0.2100      0.2100      0.2100      0.1100      0.1100      0.1100      0.2100      0.2100      0.2100       0.000    
   5   0.2100      0.2100      0.2100      0.1100      0.1100      0.1100      0.1100      0.1100      0.1100      0.1100    
   6   0.2100      0.2100      0.2100      0.1100      0.1100      0.1100      0.1100      0.1100      0.2100      0.2100    
   7   0.2100      0.2100      0.2100      0.1100      0.1100      0.1100      0.1100      0.1100      0.2100       0.000    
   8    0.000      0.2100      0.2100      0.1100      0.1100      0.1100      0.1100      0.2100      0.2100       0.000    
   9    0.000      0.2100      0.2100      0.1100      0.1100      0.1100      0.1100      0.2100      0.2100       0.000    
  10    0.000      0.2100      0.2100      0.1100      0.1100      0.1100      0.1100      0.2100      0.2100      0.2100    
  11    0.000      0.2100      0.2100      0.1100      0.1100      0.1100      0.1100      0.2100      0.2100       0.000    
  12   0.2100      0.2100      0.1100      0.1100      0.1100      0.1100      0.1100      0.2100      0.2100       0.000    
  13   0.1100      0.1100      0.1100      0.1100      0.1100      0.1100      0.1100      0.1100      0.1100       0.000    
  14    0.000      0.2100      0.2100      0.2100      0.2100      0.2100      0.2100      0.2100      0.1100       0.000    
  15    0.000       0.000      0.2100      0.2100      0.2100      0.2100       0.000       0.000       0.000       0.000    

UNSATURATED FLOW RESULTS WILL BE PRINTED TO SEPARATE FILES FOR SELECTED MODEL CELLS, AND TIME STEPS AS DEFINED BY OUTPUT CONTROL PACKAGE 

SELECTED MODEL CELLS ARE: 
 ROW NUMBER  COLUMN NUMBER  FORTRAN UNIT NUMBER  OUTPUT OPTION


       4             5                 65                 1
       4             5                 66                 2
       4             5                 67                 3
       0             0                 68                 4

 LAK7 -- LAKE PACKAGE, VERSION 7, 1/07/2013 INPUT READ FROM UNIT 33
 # Example input for specifying lake bathymetry information using external
 # text files using key word option “TABLEINPUT”
 No named parameters

 SPACE ALLOCATION FOR    150 GRID CELL FACES ADJACENT TOLAKES
 MAXIMUM NUMBER OF LAKES IS  1 FOR THIS SIMULATION
 CELL-BY-CELL SEEPAGES WILL NOT BE PRINTED OR SAVED


 NEWTON ITERATION METHOD FOR COMPUTING LAKE STAGE DURING STEADY-STATE STRESS PERIODS HAS BEEN MODIFIED:
 SPECIFIED THETA OF  0.800 WILL BE AUTOMATICALLY CHANGED TO 1.0 FOR ALL STEADY STATE STRESS PERIODS.
 MAXIMUM NUMBER OF STEADY-STATE ITERATIONS (NSSITR) =    50
 CLOSURE CRITERIA FOR STEADY-STATE LAKE STAGE (SSCNCR) =  1.000000E-04





   3 GAGING STATIONS WERE SPECIFIED.
     (Lakes are identified by a negative value of the Lake Number)
     RECORDS WILL BE WRITTEN TO SEPARATE OUTPUT FILES REPRESENTED BY FOLLOWING UNIT NUMBERS:

 Stream Gages:
  GAGE #   SEGMENT   REACH   UNIT   OUTTYPE
       1       1       4      83       4
       2       2       1      84       4
 Lake Gages:
  GAGE #    LAKE     UNIT   OUTTYPE
       3      -1    -801       3




1
                            STRESS PERIOD NO.    1, LENGTH =   2628000.    
                            -----------------------------------------------

                              NUMBER OF TIME STEPS =     1

                               MULTIPLIER FOR DELT =     1.000

                            INITIAL TIME STEP SIZE =   2628000.    

 WELL NO.  LAYER   ROW   COL   STRESS RATE         
 --------------------------------------------------
      1      2      6      4      -2.000    
      2      2      6      5      -2.000    
      3      2      7      4      -2.000    
      4      2      7      5      -2.000    
      5      2      8      4      -2.000    
      6      2      8      5      -2.000    
      7      2      9      4      -2.000    
      8      2      9      5      -2.000    
      9      2     10      4      -2.000    
     10      2     10      5      -2.000    

     10 WELLS

 BOUND. NO. LAYER   ROW   COL     STAGE      CONDUCTANCE         
 ----------------------------------------------------------------
      1      2     13      1       988.0          0.3800E-01
      2      2     14      9       1045.          0.3800E-01

      2 GHB CELLS



 CLASSIFICATION & COUNT OF STREAM SEGMENTS BASED ON SOURCE OF INFLOW:

                HEADWATER     DIVERSION     RECEIVES TRIBUTARY FLOW
                ---------     ---------     -----------------------
                     3              3               4



                    INPUT DATA FOR EACH STREAM SEGMENT
 ---------------------------------------------------------------------------------------------

 SEGMENT    SEG.     INFLOW   OVERLAND   STREAM    STREAM   ICALC  OUTFLOW  DIVERSION PRIORITY
    NO.    LENGTH     RATE     RUNOFF      ET       PPT.    METH.  TO SEG.  FROM SEG.    NO.

      1  2.305E+04 2.500E+01 0.000E+00 0.000E+00 0.000E+00    4        2        0        0
      2  2.650E+04 0.000E+00 0.000E+00 0.000E+00 0.000E+00    1        6        0        0
      3  2.750E+04 1.000E+01 0.000E+00 0.000E+00 0.000E+00    0        5        1        0
      4  1.100E+04 1.000E+01 0.000E+00 0.000E+00 0.000E+00    1        5        0        0
      5  1.500E+04 0.000E+00 0.000E+00 0.000E+00 0.000E+00    3        6        0        0
      6  2.200E+04 0.000E+00 0.000E+00 0.000E+00 0.000E+00    1        8        0        0
      7  1.550E+04 1.500E+02 0.000E+00 0.000E+00 0.000E+00    2        8        0        0
      8  2.800E+04 0.000E+00 0.000E+00 0.000E+00 0.000E+00    2        0        0        0
      9  1.000E+01 2.000E+03 0.000E+00 0.000E+00 0.000E+00    1       -1        1       -3
     10  1.000E+01 0.000E+00 0.000E+00 0.000E+00 0.000E+00    1        2       -1        0


         STREAMBED PROPERTIES AND STREAM DIMENSIONS

 SEGMENT     BED HYD. COND.      BED THICKNESS     ELEV.-TOP OF BED     WIDTH OF STREAM     DEPTH OF STREAM    STREAM ROUGHNESS
    No.     UPPER     LOWER     UPPER     LOWER     UPPER     LOWER     UPPER     LOWER     UPPER     LOWER   CHANNEL      BANK

     1  3.000E-05 3.000E-05 3.000E+00 3.000E+00 1.095E+03 1.075E+03
     2  3.000E-05 3.000E-05 3.000E+00 3.000E+00 1.075E+03 1.050E+03 1.200E+01 1.200E+01                     3.000E-02
     3  3.000E-05 3.000E-05 2.000E+00 2.000E+00 1.075E+03 1.060E+03 1.000E+01 6.000E+00 2.000E+00 1.000E+00
     4  3.000E-05 3.000E-05 3.000E+00 3.000E+00 1.080E+03 1.060E+03 1.000E+01 1.000E+01                     3.000E-02
     5  3.000E-05 3.000E-05 3.000E+00 3.000E+00 1.060E+03 1.045E+03
     6  3.000E-05 3.000E-05 3.000E+00 3.000E+00 1.045E+03 1.025E+03 1.200E+01 1.200E+01                     3.000E-02
     7  6.000E-05 6.000E-05 3.000E+00 3.000E+00 1.040E+03 1.025E+03                                         2.500E-02 4.500E-02
     8  6.000E-05 6.000E-05 3.000E+00 3.000E+00 1.025E+03 9.900E+02                                         2.500E-02 4.500E-02
     9  3.000E-05 3.000E-05 3.000E+00 3.000E+00 1.070E+03 1.050E+03 2.000E+01 2.000E+01                     3.000E-02
    10  3.000E-05 3.000E-05 3.000E+00 3.000E+00 1.083E+03 1.077E+03 2.000E+01 2.000E+01                     3.000E-02

  EIGHT POINT CROSS-SECTION DATA FOR SEGMENTS WITH ICALC = 2
    X VALUES X VALUES START FROM LEFT SIDE LOOKING DOWNSTREAM

     SEGMENT NO.        X1        X2        X3        X4        X5        X6        X7        X8
            7      0.000E+00 1.000E+01 8.000E+01 1.000E+02 1.500E+02 1.700E+02 2.400E+02 2.500E+02
            8      0.000E+00 1.000E+01 8.000E+01 1.000E+02 1.500E+02 1.700E+02 2.400E+02 2.500E+02

    Z VALUES ARE RELATIVE TO STREAMBED ELEVATION

     SEGMENT NO.          Z1        Z2        Z3        Z4        Z5        Z6        Z7        Z8
            7      2.000E+01 1.300E+01 1.000E+01 2.000E+00 0.000E+00 1.000E+01 1.300E+01 2.000E+01
            8      2.500E+01 1.700E+01 1.300E+01 4.000E+00 0.000E+00 1.000E+01 1.600E+01 2.000E+01

 STREAMFLOW RELATION WITH DEPTH IS BASED ON EQUATION Q = CDPTH*(DEPTH)**FDPTH
 STREAMFLOW RELATION WITH WIDTH IS BASED ON EQUATION Q = AWDTH*(WIDTH)**BWDTH

 SEGMENT NO.      CDPTH     FDPTH    AWDTH     BWDTH

          5 3.000E-01 3.500E-01 3.800E+00 6.000E-01

 STREAMFLOW RELATION WITH DEPTH AND WIDTH IS BASED ON TABULATED VALUES

  SEGMENT NO.   STREAMFLOW       DEPTH       WIDTH

          1     5.0000E-01   2.5000E-01   3.0000E+00
          1     1.0000E+00   4.0000E-01   3.5000E+00
          1     2.0000E+00   5.5000E-01   4.2000E+00
          1     4.0000E+00   7.0000E-01   5.3000E+00
          1     7.0000E+00   8.0000E-01   7.0000E+00
          1     1.0000E+01   9.0000E-01   8.5000E+00
          1     2.0000E+01   1.1000E+00   1.2000E+01
          1     3.0000E+01   1.2500E+00   1.4000E+01
          1     5.0000E+01   1.4000E+00   1.7000E+01
          1     7.5000E+01   1.7000E+00   2.0000E+01
          1     1.0000E+02   1.8000E+00   2.2000E+01



TABULAR INFLOWS WERE READ FOR SEGMENT      1
FROM FILE UNIT NUMBER     55

          TIMES                    INFLOWS
         0.0000000000E+00     0.2000000000E+02
         0.6440000000E+06     0.1800000000E+02
         0.1290000000E+07     0.1800000000E+02
         0.1930000000E+07     0.5700000000E+02
         0.2580000000E+07     0.2200000000E+02
         0.3220000000E+07     0.2100000000E+02
         0.3860000000E+07     0.2600000000E+02
         0.4510000000E+07     0.2500000000E+02
         0.5150000000E+07     0.2500000000E+02
         0.5800000000E+07     0.2700000000E+02
         0.6440000000E+07     0.2400000000E+02
         0.7080000000E+07     0.2300000000E+02
         0.7730000000E+07     0.2400000000E+02
         0.8370000000E+07     0.2400000000E+02
         0.9020000000E+07     0.2500000000E+02
         0.9660000000E+07     0.2300000000E+02
         0.1030000000E+08     0.2100000000E+02
         0.1090000000E+08     0.3900000000E+02
         0.1160000000E+08     0.2900000000E+02
         0.1220000000E+08     0.2520000000E+04
         0.1290000000E+08     0.1600000000E+03
         0.1350000000E+08     0.1000000000E+03
         0.1420000000E+08     0.7300000000E+02
         0.1480000000E+08     0.5030000000E+03
         0.1550000000E+08     0.9580000000E+03
         0.1610000000E+08     0.3040000000E+03
         0.1670000000E+08     0.1670000000E+03
         0.1740000000E+08     0.1190000000E+03
         0.1800000000E+08     0.1750000000E+03
         0.1870000000E+08     0.6270000000E+03
         0.1930000000E+08     0.2780000000E+03
         0.2000000000E+08     0.2880000000E+03
         0.2060000000E+08     0.2040000000E+03
         0.2130000000E+08     0.1480000000E+03
         0.2190000000E+08     0.3610000000E+03
         0.2250000000E+08     0.1650000000E+03
         0.2320000000E+08     0.1280000000E+03
         0.2380000000E+08     0.1170000000E+03
         0.2450000000E+08     0.7900000000E+02
         0.2510000000E+08     0.6100000000E+02
         0.2580000000E+08     0.4600000000E+02
         0.2640000000E+08     0.3700000000E+02
         0.2700000000E+08     0.2500000000E+02
         0.2770000000E+08     0.1900000000E+02
         0.2830000000E+08     0.1400000000E+02
         0.2900000000E+08     0.1500000000E+02
         0.2960000000E+08     0.1100000000E+02
         0.3030000000E+08     0.8000000000E+01
         0.3090000000E+08     0.4400000095E+01
         0.3160000000E+08     0.2500000000E+01



            AREAL INFILTRATION RATE
 READING ON UNIT   19 WITH FORMAT: (10F4.0)            

            1           2           3           4           5           6           7           8           9          10
 ........................................................................................................................
   1   1.0000E-10  2.0000E-10   0.000       0.000       0.000       0.000       0.000       0.000       0.000       0.000    
   2   2.0000E-10  1.0000E-10  2.0000E-10   0.000       0.000      8.0000E-10  8.0000E-10  5.0000E-10   0.000       0.000    
   3    0.000      5.0000E-10  1.0000E-10  1.0000E-10  8.0000E-10  8.0000E-10  5.0000E-10  5.0000E-10   0.000       0.000    
   4   8.0000E-10  5.0000E-10  1.0000E-10  1.0000E-10  1.0000E-10  1.0000E-10  1.0000E-10  1.0000E-10  2.0000E-10   0.000    
   5   8.0000E-10  5.0000E-10  1.0000E-10  1.0000E-10  1.0000E-10  1.0000E-10  1.0000E-10  1.0000E-10  1.0000E-10  1.0000E-10
   6   8.0000E-10  5.0000E-10  5.0000E-10  2.0000E-10  2.0000E-10  1.0000E-10  1.0000E-10  1.0000E-10  1.0000E-10  5.0000E-10
   7   8.0000E-10  5.0000E-10  5.0000E-10  2.0000E-10  2.0000E-10  1.0000E-10  1.0000E-10  2.0000E-10  2.0000E-10   0.000    
   8    0.000      5.0000E-10  5.0000E-10  2.0000E-10  2.0000E-10  1.0000E-10  1.0000E-10  2.0000E-10  5.0000E-10   0.000    
   9    0.000      5.0000E-10  5.0000E-10  2.0000E-10  2.0000E-10  1.0000E-10  1.0000E-10  2.0000E-10  5.0000E-10   0.000    
  10    0.000      5.0000E-10  5.0000E-10  2.0000E-10  2.0000E-10  1.0000E-10  1.0000E-10  2.0000E-10  5.0000E-10  8.0000E-10
  11    0.000      1.0000E-10  1.0000E-10  1.0000E-10  1.0000E-10  1.0000E-10  1.0000E-10  2.0000E-10  5.0000E-10   0.000    
  12   1.0000E-10  1.0000E-10  1.0000E-10  1.0000E-10  1.0000E-10  1.0000E-10  1.0000E-10  1.0000E-10  2.0000E-10   0.000    
  13   1.0000E-10  1.0000E-10  2.0000E-10  2.0000E-10  2.0000E-10  2.0000E-10  2.0000E-10  1.0000E-10  1.0000E-10   0.000    
  14    0.000      2.0000E-10  5.0000E-10  5.0000E-10  5.0000E-10  5.0000E-10  5.0000E-10  2.0000E-10  1.0000E-10   0.000    
  15    0.000       0.000      8.0000E-10  8.0000E-10  8.0000E-10  8.0000E-10   0.000       0.000       0.000       0.000    

                  ET RATE =  5.000000E-08

      ET EXTINCTION DEPTH =   15.0000    



           EXTINCTION WATER CONTENT
 READING ON UNIT   19 WITH FORMAT: (10F4.0)            

            1           2           3           4           5           6           7           8           9          10
 ........................................................................................................................
   1   0.1000      0.1000       0.000       0.000       0.000       0.000       0.000       0.000       0.000       0.000    
   2   0.2000      0.1000      0.1000       0.000       0.000      0.2000      0.2000      0.2000       0.000       0.000    
   3    0.000      0.2000      0.1000      0.1000      0.2000      0.2000      0.2000      0.2000       0.000       0.000    
   4   0.2000      0.2000      0.2000      0.1000      0.1000      0.1000      0.2000      0.2000      0.2000      0.1000    
   5   0.2000      0.2000      0.2000      0.1000      0.1000      0.1000      0.1000      0.1000      0.1000      0.1000    
   6   0.2000      0.2000      0.2000      0.1000      0.1000      0.1000      0.1000      0.1000      0.2000      0.2000    
   7   0.2000      0.2000      0.2000      0.1000      0.1000      0.1000      0.1000      0.1000      0.2000       0.000    
   8    0.000      0.2000      0.2000      0.1000      0.1000      0.1000      0.1000      0.2000      0.2000       0.000    
   9    0.000      0.2000      0.2000      0.1000      0.1000      0.1000      0.1000      0.2000      0.2000       0.000    
  10    0.000      0.2000      0.2000      0.1000      0.1000      0.1000      0.1000      0.2000      0.2000      0.2000    
  11    0.000      0.2000      0.2000      0.1000      0.1000      0.1000      0.1000      0.2000      0.2000       0.000    
  12   0.2000      0.2000      0.1000      0.1000      0.1000      0.1000      0.1000      0.2000      0.2000       0.000    
  13   0.1000      0.1000      0.1000      0.1000      0.1000      0.1000      0.1000      0.1000      0.1000       0.000    
  14    0.000      0.2000      0.2000      0.2000      0.2000      0.2000      0.2000      0.2000      0.1000       0.000    
  15    0.000       0.000      0.2000      0.2000      0.2000      0.2000       0.000       0.000       0.000       0.000    


 LAKE PACKAGE ACTIVE:  CALCULATED LAKE STAGE FOR EACH TIME STEP WILL BE STORED IN HNEW ARRAY.



 INITIAL LAKE STAGE:  LAKE    STAGE    SS MIN    SS MAX

                        1  1074.500  1074.500  1090.000




 If any subsequent steady-state stress periods, min. and max. stages for each lake will be read in Record 9a.




 STAGE/VOLUME RELATION FOR LAKE  1

      STAGE        VOLUME        AREA

   1.07450E+03   0.00000E+00   0.00000E+00
   1.07456E+03   1.06000E+04   1.67000E+05
   1.07463E+03   3.17000E+04   3.33000E+05
   1.07469E+03   6.33000E+04   5.00000E+05
   1.07475E+03   1.06000E+05   6.67000E+05
   1.07482E+03   1.58000E+05   8.33000E+05
   1.07488E+03   2.22000E+05   1.00000E+06
   1.07494E+03   2.96000E+05   1.17000E+06
   1.07501E+03   3.80000E+05   1.33000E+06
   1.07507E+03   4.75000E+05   1.50000E+06
   1.07513E+03   5.81000E+05   1.67000E+06
   1.07520E+03   6.97000E+05   1.83000E+06
   1.07526E+03   8.23000E+05   2.00000E+06
   1.07532E+03   9.61000E+05   2.17000E+06
   1.07539E+03   1.11000E+06   2.33000E+06
   1.07545E+03   1.27000E+06   2.50000E+06
   1.07551E+03   1.44000E+06   2.67000E+06
   1.07558E+03   1.61000E+06   2.83000E+06
   1.07564E+03   1.80000E+06   3.00000E+06
   1.07570E+03   2.01000E+06   3.17000E+06
   1.07577E+03   2.22000E+06   3.33000E+06
   1.07583E+03   2.44000E+06   3.50000E+06
   1.07589E+03   2.67000E+06   3.67000E+06
   1.07596E+03   2.91000E+06   3.83000E+06
   1.07602E+03   3.17000E+06   4.00000E+06
   1.07608E+03   3.43000E+06   4.17000E+06
   1.07615E+03   3.70000E+06   4.33000E+06
   1.07621E+03   3.99000E+06   4.50000E+06
   1.07627E+03   4.29000E+06   4.67000E+06
   1.07634E+03   4.59000E+06   4.83000E+06
   1.07640E+03   4.91000E+06   5.00000E+06
   1.07646E+03   5.24000E+06   5.17000E+06
   1.07653E+03   5.57000E+06   5.33000E+06
   1.07659E+03   5.92000E+06   5.50000E+06
   1.07665E+03   6.28000E+06   5.67000E+06
   1.07672E+03   6.65000E+06   5.83000E+06
   1.07678E+03   7.03000E+06   6.00000E+06
   1.07684E+03   7.42000E+06   6.17000E+06
   1.07691E+03   7.82000E+06   6.33000E+06
   1.07697E+03   8.23000E+06   6.50000E+06
   1.07703E+03   8.66000E+06   6.67000E+06
   1.07710E+03   9.09000E+06   6.83000E+06
   1.07716E+03   9.53000E+06   7.00000E+06
   1.07722E+03   9.99000E+06   7.17000E+06
   1.07729E+03   1.04000E+07   7.33000E+06
   1.07735E+03   1.09000E+07   7.50000E+06
   1.07741E+03   1.14000E+07   7.67000E+06
   1.07748E+03   1.19000E+07   7.83000E+06
   1.07754E+03   1.24000E+07   8.00000E+06
   1.07760E+03   1.29000E+07   8.17000E+06
   1.07767E+03   1.35000E+07   8.33000E+06
   1.07773E+03   1.40000E+07   8.50000E+06
   1.07779E+03   1.45000E+07   8.67000E+06
   1.07786E+03   1.51000E+07   8.83000E+06
   1.07792E+03   1.57000E+07   9.00000E+06
   1.07798E+03   1.63000E+07   9.17000E+06
   1.07805E+03   1.68000E+07   9.33000E+06
   1.07811E+03   1.74000E+07   9.50000E+06
   1.07817E+03   1.81000E+07   9.67000E+06
   1.07824E+03   1.87000E+07   9.83000E+06
   1.07830E+03   1.93000E+07   1.00000E+07
   1.07836E+03   2.00000E+07   1.02000E+07
   1.07843E+03   2.06000E+07   1.03000E+07
   1.07849E+03   2.13000E+07   1.05000E+07
   1.07855E+03   2.20000E+07   1.07000E+07
   1.07862E+03   2.26000E+07   1.08000E+07
   1.07868E+03   2.33000E+07   1.10000E+07
   1.07874E+03   2.40000E+07   1.12000E+07
   1.07881E+03   2.48000E+07   1.13000E+07
   1.07887E+03   2.55000E+07   1.15000E+07
   1.07893E+03   2.62000E+07   1.17000E+07
   1.07900E+03   2.70000E+07   1.18000E+07
   1.07906E+03   2.77000E+07   1.20000E+07
   1.07912E+03   2.85000E+07   1.22000E+07
   1.07919E+03   2.93000E+07   1.23000E+07
   1.07925E+03   3.01000E+07   1.25000E+07
   1.07931E+03   3.09000E+07   1.27000E+07
   1.07938E+03   3.17000E+07   1.28000E+07
   1.07944E+03   3.25000E+07   1.30000E+07
   1.07950E+03   3.34000E+07   1.32000E+07
   1.07957E+03   3.42000E+07   1.33000E+07
   1.07963E+03   3.51000E+07   1.35000E+07
   1.07969E+03   3.59000E+07   1.37000E+07
   1.07976E+03   3.68000E+07   1.38000E+07
   1.07982E+03   3.77000E+07   1.40000E+07
   1.07988E+03   3.86000E+07   1.42000E+07
   1.07995E+03   3.95000E+07   1.43000E+07
   1.08001E+03   4.04000E+07   1.45000E+07
   1.08007E+03   4.13000E+07   1.47000E+07
   1.08014E+03   4.23000E+07   1.48000E+07
   1.08020E+03   4.32000E+07   1.50000E+07
   1.08026E+03   4.42000E+07   1.52000E+07
   1.08033E+03   4.52000E+07   1.53000E+07
   1.08039E+03   4.61000E+07   1.55000E+07
   1.08045E+03   4.71000E+07   1.57000E+07
   1.08052E+03   4.81000E+07   1.58000E+07
   1.08058E+03   4.91000E+07   1.60000E+07
   1.08064E+03   5.02000E+07   1.62000E+07
   1.08071E+03   5.12000E+07   1.63000E+07
   1.08077E+03   5.22000E+07   1.65000E+07
   1.08083E+03   5.33000E+07   1.67000E+07
   1.08090E+03   5.44000E+07   1.68000E+07
   1.08096E+03   5.54000E+07   1.70000E+07
   1.08102E+03   5.65000E+07   1.72000E+07
   1.08109E+03   5.76000E+07   1.73000E+07
   1.08115E+03   5.87000E+07   1.75000E+07
   1.08121E+03   5.99000E+07   1.77000E+07
   1.08128E+03   6.10000E+07   1.78000E+07
   1.08134E+03   6.21000E+07   1.80000E+07
   1.08140E+03   6.33000E+07   1.82000E+07
   1.08147E+03   6.44000E+07   1.83000E+07
   1.08153E+03   6.56000E+07   1.85000E+07
   1.08159E+03   6.68000E+07   1.87000E+07
   1.08166E+03   6.80000E+07   1.88000E+07
   1.08172E+03   6.92000E+07   1.90000E+07
   1.08178E+03   7.04000E+07   1.92000E+07
   1.08185E+03   7.16000E+07   1.93000E+07
   1.08191E+03   7.29000E+07   1.95000E+07
   1.08197E+03   7.41000E+07   1.97000E+07
   1.08204E+03   7.54000E+07   1.98000E+07
   1.08210E+03   7.66000E+07   2.00000E+07
   1.08216E+03   7.79000E+07   2.02000E+07
   1.08223E+03   7.92000E+07   2.03000E+07
   1.08229E+03   8.05000E+07   2.05000E+07
   1.08235E+03   8.18000E+07   2.07000E+07
   1.08242E+03   8.31000E+07   2.08000E+07
   1.08248E+03   8.45000E+07   2.10000E+07
   1.08254E+03   8.58000E+07   2.12000E+07
   1.08261E+03   8.71000E+07   2.13000E+07
   1.08267E+03   8.85000E+07   2.15000E+07
   1.08273E+03   8.99000E+07   2.17000E+07
   1.08280E+03   9.13000E+07   2.18000E+07
   1.08286E+03   9.27000E+07   2.20000E+07
   1.08292E+03   9.41000E+07   2.22000E+07
   1.08299E+03   9.55000E+07   2.23000E+07
   1.08305E+03   9.69000E+07   2.25000E+07
   1.08311E+03   9.83000E+07   2.27000E+07
   1.08318E+03   9.98000E+07   2.28000E+07
   1.08324E+03   1.01000E+08   2.30000E+07
   1.08330E+03   1.03000E+08   2.32000E+07
   1.08337E+03   1.04000E+08   2.33000E+07
   1.08343E+03   1.06000E+08   2.35000E+07
   1.08349E+03   1.07000E+08   2.37000E+07
   1.08356E+03   1.09000E+08   2.38000E+07
   1.08362E+03   1.10000E+08   2.40000E+07
   1.08368E+03   1.12000E+08   2.42000E+07
   1.08375E+03   1.13000E+08   2.43000E+07
   1.08381E+03   1.15000E+08   2.45000E+07
   1.08387E+03   1.16000E+08   2.47000E+07
   1.08394E+03   1.18000E+08   2.48000E+07
   1.08400E+03   1.20000E+08   2.50000E+07



                      LAKE ID ARRAY FOR LAYER   1
 READING ON UNIT   33 WITH FORMAT: (20I4)              

                1           2           3           4           5           6           7           8           9          10
 ............................................................................................................................
   1            0           0           0           0           0           0           0           0           0           0
   2            0           0           0           0           0           0           0           0           0           0
   3            0           0           0           0           0           0           0           0           0           0
   4            0           0           0           0           1           0           0           0           0           0
   5            0           0           0           0           0           0           0           0           0           0
   6            0           0           0           0           0           0           0           0           0           0
   7            0           0           0           0           0           0           0           0           0           0
   8            0           0           0           0           0           0           0           0           0           0
   9            0           0           0           0           0           0           0           0           0           0
  10            0           0           0           0           0           0           0           0           0           0
  11            0           0           0           0           0           0           0           0           0           0
  12            0           0           0           0           0           0           0           0           0           0
  13            0           0           0           0           0           0           0           0           0           0
  14            0           0           0           0           0           0           0           0           0           0
  15            0           0           0           0           0           0           0           0           0           0



                      LAKE ID ARRAY FOR LAYER   2
 READING ON UNIT   33 WITH FORMAT: (20I4)              

                1           2           3           4           5           6           7           8           9          10
 ............................................................................................................................
   1            0           0           0           0           0           0           0           0           0           0
   2            0           0           0           0           0           0           0           0           0           0
   3            0           0           0           0           0           0           0           0           0           0
   4            0           0           0           0           0           0           0           0           0           0
   5            0           0           0           0           0           0           0           0           0           0
   6            0           0           0           0           0           0           0           0           0           0
   7            0           0           0           0           0           0           0           0           0           0
   8            0           0           0           0           0           0           0           0           0           0
   9            0           0           0           0           0           0           0           0           0           0
  10            0           0           0           0           0           0           0           0           0           0
  11            0           0           0           0           0           0           0           0           0           0
  12            0           0           0           0           0           0           0           0           0           0
  13            0           0           0           0           0           0           0           0           0           0
  14            0           0           0           0           0           0           0           0           0           0
  15            0           0           0           0           0           0           0           0           0           0





   LAKEBED LEAKANCE ARRAY =  5.000000E-02 FOR LAYER   1

   LAKEBED LEAKANCE ARRAY =  5.000000E-02 FOR LAYER   2

       LOCATIONS, LAKE #, INTERFACE TYPE FOR GRID CELLS ADJACENT TO LAKES:
     -----------------------------------------------------------------------
     LAYER #    ROW #    COLUMN #   LAKE #  INTERFACE TYPE  LAKEBED LEAKANCE
         1         4         4         1         2             5.000E-02
         1         3         5         1         3             5.000E-02
         2         4         5         1         6             5.000E-02
         1         5         5         1         4             5.000E-02
         1         4         6         1         1             5.000E-02

     NUMBER OF LAKE-AQUIFER CELL INTERFACES =     5

 NUMBER OF CONNECTED LAKE SYSTEMS IN SIMULATION IS   0

 LAKE       PRECIP     EVAP     RUNOFF   WITHDRAW   BOTTOM     AREA
----------------------------------------------------------------------
   1     0.000E+00 4.000E-08 0.000E+00  0.000E+00 1.074E+03 2.500E+07




         C               INTERFACE CONDUCTANCES BETWEEN LAKE AND AQUIFER CELLS
   L     O          (IF TYPE = 6, CONDUCTANCE (L^2/T) IS BETWEEN AQUIFER CELL AND OVERLYING LAKE CELL.)
   A     L  L  T    (IF TYPE = 1 TO 4, CONDUCTANCES ARE PER UNIT SATURATED THICKNESS (L/T).)
   Y  R  U  A  Y
   E  O  M  K  P                        LAKEBED      C O N D U C T A N C E S
   R  W  N  E  E     DELTA Y   DELTA X  LEAKANCE   LAKEBED   AQUIFER  COMBINED
 _______________________________________________________________________________
   1  4  4  1  2    5.00E+03  5.00E+03  5.00E-02  2.50E+02  6.00E-03  6.00E-03
   1  3  5  1  3    5.00E+03  5.00E+03  5.00E-02  2.50E+02  1.20E-03  1.20E-03
   2  4  5  1  6    5.00E+03  5.00E+03  5.00E-02  1.25E+06  9.42E+00  9.42E+00
   1  5  5  1  4    5.00E+03  5.00E+03  5.00E-02  2.50E+02  6.00E-03  6.00E-03
   1  4  6  1  1    5.00E+03  5.00E+03  5.00E-02  2.50E+02  6.00E-03  6.00E-03
 
      DEAD POOL STORAGE FOR LAKE    1 BELOW SEGMENT   10 IS EQUAL TO     0.1200000000E+09
 
      LAKE     INFLOWING STREAM SEGMENT
         1                  9

 MAXIMUM NUMBER OF STREAMS INFLOWING TO A LAKE IS    1

      LAKE     OUTFLOWING STREAM SEGMENT
         1                 10

 MAXIMUM NUMBER OF STREAMS OUTFLOWING FROM A LAKE IS    1

 
 SOLVING FOR HEAD 
                                                   Max.-Head-Change                         Max.-Flux-Residual
  Residual-Control   Outer-Iter.   Inner-Iter.     Column Row Layer    Maximum-Head-Change  Column Row Layer    Maximum-Flux-Residual          L2-NORM 
          0                 1           3            10   10     2      -0.1026992959E+02       3   13    2        -0.2143134774E+02      0.2863072411E+02
          0                 2           4             8    4     2      -0.4056888473E+01       4   13    2        -0.4174205352E+01      0.4696281722E+01
          0                 3           3             8    4     2       0.2386763444E+00       4   13    2        -0.1302821613E+01      0.1321729795E+01
          0                 4           2             4   13     2       0.1812504986E-01       4   13    2         0.1167369603E+00      0.1222756150E+00
          0                 5           1             1   13     2       0.9932960532E-03       4   13    2        -0.6102660583E-02      0.8417512936E-02

    ------------------------------------------------
       NWT REQUIRED            5 OUTER ITERATIONS 
       AND A TOTAL OF         13 INNER ITERATIONS.
    ------------------------------------------------

 OUTPUT CONTROL FOR STRESS PERIOD    1   TIME STEP    1
    PRINT BUDGET
    PRINT HEAD FOR ALL LAYERS
    SAVE HEAD FOR ALL LAYERS
    SAVE BUDGET

            WELLS   PERIOD    1   STEP   1
 WELL      1   LAYER   2   ROW     6   COL     4   RATE    -2.00000    
 WELL      2   LAYER   2   ROW     6   COL     5   RATE    -2.00000    
 WELL      3   LAYER   2   ROW     7   COL     4   RATE    -2.00000    
 WELL      4   LAYER   2   ROW     7   COL     5   RATE    -2.00000    
 WELL      5   LAYER   2   ROW     8   COL     4   RATE    -2.00000    
 WELL      6   LAYER   2   ROW     8   COL     5   RATE    -2.00000    
 WELL      7   LAYER   2   ROW     9   COL     4   RATE    -2.00000    
 WELL      8   LAYER   2   ROW     9   COL     5   RATE    -2.00000    
 WELL      9   LAYER   2   ROW    10   COL     4   RATE    -2.00000    
 WELL     10   LAYER   2   ROW    10   COL     5   RATE    -2.00000    

  HEAD DEP BOUNDS   PERIOD    1   STEP     1
 BOUNDARY      1   LAYER   2   ROW    13   COL     1   RATE   -0.286583    
 BOUNDARY      2   LAYER   2   ROW    14   COL     9   RATE    0.215996    



 STREAM LISTING     PERIOD      1   STEP        1

 LAYER ROW COL. STREAM  RCH.  FLOW INTO     FLOW TO   FLOW OUT OF   OVRLND.     DIRECT     STREAM       STREAM     STREAM     STREAM   STREAMBED  STREAMBED
                SEG.NO.  NO.  STRM. RCH.    AQUIFER    STRM. RCH.    RUNOFF     PRECIP       ET          HEAD       DEPTH      WIDTH   CONDCTNC.   GRADIENT

   2    1    1     1     1    2.8209E+01  2.0699E+00   2.6139E+01  0.000E+00  0.000E+00  0.000E+00  1.09426E+03  1.212E+00  1.348E+01  6.067E-01  1.137E+00
   2    2    2     1     2    2.6139E+01  3.7684E+00   2.2371E+01  0.000E+00  0.000E+00  0.000E+00  1.08923E+03  1.169E+00  1.291E+01  9.039E-01  1.390E+00
   2    3    3     1     3    2.2371E+01  3.0108E+00   1.9360E+01  0.000E+00  0.000E+00  0.000E+00  1.08353E+03  1.115E+00  1.219E+01  7.317E-01  1.372E+00
   2    3    4     1     4    1.9360E+01  2.5762E+00   1.6784E+01  0.000E+00  0.000E+00  0.000E+00  1.07848E+03  1.068E+00  1.141E+01  6.332E-01  1.356E+00
   2    4    5     2     1    6.7841E+00  2.7166E+00   4.0674E+00  0.000E+00  0.000E+00  0.000E+00  1.07242E+03  4.829E-01  1.200E+01  7.800E-01  1.161E+00
   2    5    6     2     2    4.0674E+00  2.0056E+00   2.0618E+00  0.000E+00  0.000E+00  0.000E+00  1.06685E+03  3.427E-01  1.200E+01  6.000E-01  1.114E+00
   2    6    6     2     3    2.0618E+00  1.9116E+00   1.5021E-01  0.000E+00  0.000E+00  0.000E+00  1.06198E+03  1.859E-01  1.200E+01  6.000E-01  1.062E+00
   2    7    6     2     4    1.5021E-01  1.5021E-01   0.0000E+00  0.000E+00  0.000E+00  0.000E+00  1.05709E+03  1.263E-02  1.200E+01  6.000E-01  1.004E+00
   2    8    6     2     5    0.0000E+00  0.0000E+00   0.0000E+00  0.000E+00  0.000E+00  0.000E+00  1.05236E+03  0.000E+00  1.200E+01  6.000E-01  1.000E+00
   2    3    5     3     1    1.0000E+01  2.8252E+00   7.1748E+00  0.000E+00  0.000E+00  0.000E+00  1.07555E+03  1.909E+00  9.636E+00  7.227E-01  1.955E+00
   2    3    6     3     2    7.1748E+00  2.4905E+00   4.6843E+00  0.000E+00  0.000E+00  0.000E+00  1.07264E+03  1.727E+00  8.909E+00  6.682E-01  1.864E+00
   2    3    7     3     3    4.6843E+00  1.9718E+00   2.7125E+00  0.000E+00  0.000E+00  0.000E+00  1.06987E+03  1.555E+00  8.218E+00  5.547E-01  1.777E+00
   2    4    8     3     4    2.7125E+00  2.2567E+00   4.5579E-01  0.000E+00  0.000E+00  0.000E+00  1.06682E+03  1.364E+00  7.455E+00  6.709E-01  1.682E+00
   2    5    8     3     5    4.5579E-01  4.5579E-01   0.0000E+00  0.000E+00  0.000E+00  0.000E+00  1.06362E+03  0.000E+00  6.655E+00  4.991E-01  1.582E+00
   2    6    8     3     6    0.0000E+00  0.0000E+00   0.0000E+00  0.000E+00  0.000E+00  0.000E+00  1.06055E+03  0.000E+00  6.145E+00  1.844E-01  1.000E+00
   2    5   10     4     1    1.0000E+01  9.0525E-01   9.0947E+00  0.000E+00  0.000E+00  0.000E+00  1.07835E+03  6.210E-01  1.000E+01  2.500E-01  1.207E+00
   2    5    9     4     2    9.0947E+00  1.7835E+00   7.3113E+00  0.000E+00  0.000E+00  0.000E+00  1.07148E+03  5.670E-01  1.000E+01  5.000E-01  1.189E+00
   2    6    8     4     3    7.3113E+00  1.2257E+00   6.0855E+00  0.000E+00  0.000E+00  0.000E+00  1.06368E+03  5.021E-01  1.000E+01  3.500E-01  1.167E+00
   2    6    8     5     1    6.0855E+00  1.4716E+00   4.6139E+00  0.000E+00  0.000E+00  0.000E+00  1.05854E+03  5.396E-01  1.039E+01  4.158E-01  1.180E+00
   2    7    7     5     2    4.6139E+00  1.4897E+00   3.1242E+00  0.000E+00  0.000E+00  0.000E+00  1.05398E+03  4.817E-01  8.557E+00  4.279E-01  1.161E+00
   2    8    7     5     3    3.1242E+00  8.2855E-01   2.2957E+00  0.000E+00  0.000E+00  0.000E+00  1.04968E+03  4.253E-01  6.911E+00  2.419E-01  1.142E+00
   2    8    6     5     4    2.2957E+00  4.9455E-01   1.8011E+00  0.000E+00  0.000E+00  0.000E+00  1.04664E+03  3.856E-01  5.843E+00  1.461E-01  1.129E+00
   2    9    6     6     1    1.8011E+00  1.8011E+00   0.0000E+00  0.000E+00  0.000E+00  0.000E+00  1.04278E+03  5.669E-02  1.200E+01  6.000E-01  1.019E+00
   2   10    7     6     2    0.0000E+00  0.0000E+00   0.0000E+00  0.000E+00  0.000E+00  0.000E+00  1.03818E+03  0.000E+00  1.200E+01  6.000E-01  1.000E+00
   2   11    7     6     3    0.0000E+00  0.0000E+00   0.0000E+00  0.000E+00  0.000E+00  0.000E+00  1.03364E+03  0.000E+00  1.200E+01  6.000E-01  1.000E+00
   2   12    7     6     4    0.0000E+00  0.0000E+00   0.0000E+00  0.000E+00  0.000E+00  0.000E+00  1.02909E+03  0.000E+00  1.200E+01  6.000E-01  5.998E-01
   2   13    7     6     5    0.0000E+00 -7.2162E-01   7.2162E-01  0.000E+00  0.000E+00  0.000E+00  1.02601E+03  9.601E-02  1.200E+01  2.400E-01 -1.002E+00
   2   14    9     7     1    1.5000E+02  3.0633E+00   1.4694E+02  0.000E+00  0.000E+00  0.000E+00  1.03986E+03  2.283E+00  5.527E+01  5.591E+00  1.826E-01
   2   13    8     7     2    1.4694E+02  4.2102E+00   1.4273E+02  0.000E+00  0.000E+00  0.000E+00  1.03476E+03  2.264E+00  5.519E+01  6.139E+00  2.286E-01
   2   13    7     7     3    1.4273E+02  3.6212E+00   1.3911E+02  0.000E+00  0.000E+00  0.000E+00  1.02966E+03  2.243E+00  5.509E+01  5.571E+00  2.167E-01
   2   13    6     8     1    1.3983E+02  1.7240E+00   1.3810E+02  0.000E+00  0.000E+00  0.000E+00  1.02461E+03  2.737E+00  3.969E+01  4.045E+00  1.421E-01
   2   13    5     8     2    1.3810E+02 -1.4658E+00   1.3957E+02  0.000E+00  0.000E+00  0.000E+00  1.01836E+03  2.736E+00  3.968E+01  4.043E+00 -1.208E-01
   2   13    4     8     3    1.3957E+02 -4.5010E+00   1.4407E+02  0.000E+00  0.000E+00  0.000E+00  1.01213E+03  2.758E+00  3.999E+01  4.076E+00 -3.681E-01
[...]
  Residual-Control   Outer-Iter.   Inner-Iter.     Column Row Layer    Maximum-Head-Change  Column Row Layer    Maximum-Flux-Residual          L2-NORM 
          0                 1           2             3    2     2      -0.5095768912E-01       3    2    2        -0.1329496239E+01      0.3336405011E+01
          0                 2           2             3    2     2       0.4910399977E-02       3    2    2         0.1329475410E+00      0.3200257117E+00
          0                 3           1             3    2     2      -0.2839509599E-03       3    2    2        -0.7976869163E-02      0.1882497847E-01

    ------------------------------------------------
       NWT REQUIRED            3 OUTER ITERATIONS 
       AND A TOTAL OF          5 INNER ITERATIONS.
    ------------------------------------------------

 NO OUTPUT CONTROL FOR STRESS PERIOD   12   TIME STEP  112
 ..........LAKE  1 IS DRY..........
 
 SOLVING FOR HEAD 
                                                   Max.-Head-Change                         Max.-Flux-Residual
  Residual-Control   Outer-Iter.   Inner-Iter.     Column Row Layer    Maximum-Head-Change  Column Row Layer    Maximum-Flux-Residual          L2-NORM 
          0                 1           2             3    2     2      -0.5071732891E-01       3    2    2        -0.1323230095E+01      0.3321926299E+01
          0                 2           2             3    2     2       0.4887238465E-02       3    2    2         0.1323209419E+00      0.3185955706E+00
          0                 3           1             3    2     2      -0.2826116089E-03       3    2    2        -0.7939273089E-02      0.1873916833E-01

    ------------------------------------------------
       NWT REQUIRED            3 OUTER ITERATIONS 
       AND A TOTAL OF          5 INNER ITERATIONS.
    ------------------------------------------------

 NO OUTPUT CONTROL FOR STRESS PERIOD   12   TIME STEP  113
 ..........LAKE  1 IS DRY..........
 
 SOLVING FOR HEAD 
                                                   Max.-Head-Change                         Max.-Flux-Residual
  Residual-Control   Outer-Iter.   Inner-Iter.     Column Row Layer    Maximum-Head-Change  Column Row Layer    Maximum-Flux-Residual          L2-NORM 
          0                 1           2             3    2     2      -0.5047803874E-01       3    2    2        -0.1316990689E+01      0.3307541535E+01
          0                 2           2             3    2     2       0.4864180071E-02       3    2    2         0.1316970169E+00      0.3171861711E+00
          0                 3           1             3    2     2      -0.2812782211E-03       3    2    2        -0.7901837463E-02      0.1865452776E-01

    ------------------------------------------------
       NWT REQUIRED            3 OUTER ITERATIONS 
       AND A TOTAL OF          5 INNER ITERATIONS.
    ------------------------------------------------

 NO OUTPUT CONTROL FOR STRESS PERIOD   12   TIME STEP  114
 ..........LAKE  1 IS DRY..........
 
 SOLVING FOR HEAD 
                                                   Max.-Head-Change                         Max.-Flux-Residual
  Residual-Control   Outer-Iter.   Inner-Iter.     Column Row Layer    Maximum-Head-Change  Column Row Layer    Maximum-Flux-Residual          L2-NORM 
          0                 1           2             3    2     2      -0.5023973846E-01       3    2    2        -0.1310776013E+01      0.3293480334E+01
          0                 2           2             3    2     2       0.4841217075E-02       3    2    2         0.1310755651E+00      0.3157902639E+00
          0                 3           1             3    2     2      -0.2799503497E-03       3    2    2        -0.7864550224E-02      0.1857049296E-01

    ------------------------------------------------
       NWT REQUIRED            3 OUTER ITERATIONS 
       AND A TOTAL OF          5 INNER ITERATIONS.
    ------------------------------------------------

 NO OUTPUT CONTROL FOR STRESS PERIOD   12   TIME STEP  115
 ..........LAKE  1 IS DRY..........
 
 SOLVING FOR HEAD 
                                                   Max.-Head-Change                         Max.-Flux-Residual
  Residual-Control   Outer-Iter.   Inner-Iter.     Column Row Layer    Maximum-Head-Change  Column Row Layer    Maximum-Flux-Residual          L2-NORM 
          0                 1           2             3    2     2      -0.5000246879E-01       3    2    2        -0.1304587025E+01      0.3279525787E+01
          0                 2           2             3    2     2       0.4818353397E-02       3    2    2         0.1304566822E+00      0.3144068861E+00
          0                 3           1             3    2     2      -0.2786282207E-03       3    2    2        -0.7827417108E-02      0.1848724619E-01

    ------------------------------------------------
       NWT REQUIRED            3 OUTER ITERATIONS 
       AND A TOTAL OF          5 INNER ITERATIONS.
    ------------------------------------------------

 NO OUTPUT CONTROL FOR STRESS PERIOD   12   TIME STEP  116
 ..........LAKE  1 IS DRY..........
 
 SOLVING FOR HEAD 
                                                   Max.-Head-Change                         Max.-Flux-Residual
  Residual-Control   Outer-Iter.   Inner-Iter.     Column Row Layer    Maximum-Head-Change  Column Row Layer    Maximum-Flux-Residual          L2-NORM 
          0                 1           2             3    2     2      -0.4976625644E-01       3    2    2        -0.1298424779E+01      0.3265667906E+01
          0                 2           2             3    2     2       0.4795591611E-02       3    2    2         0.1298404738E+00      0.3130388451E+00
          0                 3           1             3    2     2      -0.2773119846E-03       3    2    2        -0.7790444465E-02      0.1840499801E-01

    ------------------------------------------------
       NWT REQUIRED            3 OUTER ITERATIONS 
       AND A TOTAL OF          5 INNER ITERATIONS.
    ------------------------------------------------

 NO OUTPUT CONTROL FOR STRESS PERIOD   12   TIME STEP  117
 ..........LAKE  1 IS DRY..........
 
 SOLVING FOR HEAD 
                                                   Max.-Head-Change                         Max.-Flux-Residual
  Residual-Control   Outer-Iter.   Inner-Iter.     Column Row Layer    Maximum-Head-Change  Column Row Layer    Maximum-Flux-Residual          L2-NORM 
          0                 1           2             3    2     2      -0.4953124505E-01       3    2    2        -0.1292293002E+01      0.3252087513E+01
          0                 2           2             3    2     2       0.4771328823E-02       3    2    2         0.1292273124E+00      0.3107105692E+00
          0                 3           1             3    2     2      -0.2759089757E-03       3    2    2        -0.7753655512E-02      0.1826329200E-01

    ------------------------------------------------
       NWT REQUIRED            3 OUTER ITERATIONS 
       AND A TOTAL OF          5 INNER ITERATIONS.
    ------------------------------------------------

 NO OUTPUT CONTROL FOR STRESS PERIOD   12   TIME STEP  118
 ..........LAKE  1 IS DRY..........
 
 SOLVING FOR HEAD 
                                                   Max.-Head-Change                         Max.-Flux-Residual
  Residual-Control   Outer-Iter.   Inner-Iter.     Column Row Layer    Maximum-Head-Change  Column Row Layer    Maximum-Flux-Residual          L2-NORM 
          0                 1           2             3    2     2      -0.4930282597E-01       3    2    2        -0.1286232828E+01      0.3239854035E+01
          0                 2           2             3    2     2       0.4750935366E-02       3    2    2         0.1286213331E+00      0.3104686170E+00
          0                 3           1             3    2     2      -0.2747296602E-03       3    2    2        -0.7717295546E-02      0.1825542110E-01

    ------------------------------------------------
       NWT REQUIRED            3 OUTER ITERATIONS 
       AND A TOTAL OF          5 INNER ITERATIONS.
    ------------------------------------------------

 NO OUTPUT CONTROL FOR STRESS PERIOD   12   TIME STEP  119
 ..........LAKE  1 IS DRY..........
 
 SOLVING FOR HEAD 
                                                   Max.-Head-Change                         Max.-Flux-Residual
  Residual-Control   Outer-Iter.   Inner-Iter.     Column Row Layer    Maximum-Head-Change  Column Row Layer    Maximum-Flux-Residual          L2-NORM 
          0                 1           2             3    2     2      -0.4907582569E-01       3    2    2        -0.1280256744E+01      0.3227772727E+01
          0                 2           2             3    2     2       0.4729061615E-02       3    2    2         0.1280237522E+00      0.3092728892E+00
          0                 3           1             3    2     2      -0.2734647728E-03       3    2    2        -0.7681440444E-02      0.1817359099E-01

    ------------------------------------------------
       NWT REQUIRED            3 OUTER ITERATIONS 
       AND A TOTAL OF          5 INNER ITERATIONS.
    ------------------------------------------------

 NO OUTPUT CONTROL FOR STRESS PERIOD   12   TIME STEP  120



 STREAM LISTING     PERIOD     12   STEP      120

 LAYER ROW COL. STREAM  RCH.  FLOW INTO     FLOW TO   FLOW OUT OF   OVRLND.     DIRECT     STREAM       STREAM     STREAM     STREAM   STREAMBED  STREAMBED
                SEG.NO.  NO.  STRM. RCH.    AQUIFER    STRM. RCH.    RUNOFF     PRECIP       ET          HEAD       DEPTH      WIDTH   CONDCTNC.   GRADIENT

   2    1    1     1     1    2.5000E+00  6.9073E-01   1.8093E+00  0.000E+00  0.000E+00  0.000E+00  1.09361E+03  5.644E-01  4.306E+00  1.938E-01  1.188E+00
   2    2    2     1     2    1.8093E+00  9.1724E-01   8.9203E-01  0.000E+00  0.000E+00  0.000E+00  1.08852E+03  4.592E-01  3.788E+00  2.652E-01  1.153E+00
   2    3    3     1     3    8.9203E-01  6.1141E-01   2.8062E-01  0.000E+00  0.000E+00  0.000E+00  1.08270E+03  2.785E-01  3.108E+00  1.865E-01  1.093E+00
   2    3    4     1     4    2.8062E-01  1.9077E-01   8.9854E-02  0.000E+00  0.000E+00  0.000E+00  1.07750E+03  9.262E-02  1.111E+00  6.168E-02  1.031E+00
   2    4    5     2     1    0.0000E+00  0.0000E+00   0.0000E+00  0.000E+00  0.000E+00  0.000E+00  1.07193E+03  0.000E+00  1.200E+01  7.800E-01  1.000E+00
   2    5    6     2     2    0.0000E+00  0.0000E+00   0.0000E+00  0.000E+00  0.000E+00  0.000E+00  1.06651E+03  0.000E+00  1.200E+01  6.000E-01  1.000E+00
   2    6    6     2     3    0.0000E+00  0.0000E+00   0.0000E+00  0.000E+00  0.000E+00  0.000E+00  1.06179E+03  0.000E+00  1.200E+01  6.000E-01  1.000E+00
   2    7    6     2     4    0.0000E+00  0.0000E+00   0.0000E+00  0.000E+00  0.000E+00  0.000E+00  1.05708E+03  0.000E+00  1.200E+01  6.000E-01  1.000E+00
   2    8    6     2     5    0.0000E+00  0.0000E+00   0.0000E+00  0.000E+00  0.000E+00  0.000E+00  1.05236E+03  0.000E+00  1.200E+01  6.000E-01  1.000E+00
   2    3    5     3     1    8.9854E-02  8.9854E-02   0.0000E+00  0.000E+00  0.000E+00  0.000E+00  1.07555E+03  0.000E+00  9.636E+00  7.227E-01  1.955E+00
   2    3    6     3     2    0.0000E+00  0.0000E+00   0.0000E+00  0.000E+00  0.000E+00  0.000E+00  1.07091E+03  0.000E+00  8.909E+00  6.682E-01  1.000E+00
   2    3    7     3     3    0.0000E+00  0.0000E+00   0.0000E+00  0.000E+00  0.000E+00  0.000E+00  1.06832E+03  0.000E+00  8.218E+00  5.547E-01  1.000E+00
   2    4    8     3     4    0.0000E+00  0.0000E+00   0.0000E+00  0.000E+00  0.000E+00  0.000E+00  1.06545E+03  0.000E+00  7.455E+00  6.709E-01  1.000E+00
   2    5    8     3     5    0.0000E+00  0.0000E+00   0.0000E+00  0.000E+00  0.000E+00  0.000E+00  1.06245E+03  0.000E+00  6.655E+00  4.991E-01  1.000E+00
   2    6    8     3     6    0.0000E+00  0.0000E+00   0.0000E+00  0.000E+00  0.000E+00  0.000E+00  1.06055E+03  0.000E+00  6.145E+00  1.844E-01  1.000E+00
   2    5   10     4     1    1.0000E+01  9.0525E-01   9.0947E+00  0.000E+00  0.000E+00  0.000E+00  1.07835E+03  6.210E-01  1.000E+01  2.500E-01  1.207E+00
   2    5    9     4     2    9.0947E+00  1.7835E+00   7.3113E+00  0.000E+00  0.000E+00  0.000E+00  1.07148E+03  5.670E-01  1.000E+01  5.000E-01  1.189E+00
   2    6    8     4     3    7.3113E+00  1.2257E+00   6.0855E+00  0.000E+00  0.000E+00  0.000E+00  1.06368E+03  5.021E-01  1.000E+01  3.500E-01  1.167E+00
   2    6    8     5     1    6.0855E+00  1.4716E+00   4.6139E+00  0.000E+00  0.000E+00  0.000E+00  1.05854E+03  5.396E-01  1.039E+01  4.158E-01  1.180E+00
   2    7    7     5     2    4.6139E+00  1.4897E+00   3.1242E+00  0.000E+00  0.000E+00  0.000E+00  1.05398E+03  4.817E-01  8.557E+00  4.279E-01  1.161E+00
   2    8    7     5     3    3.1242E+00  8.2855E-01   2.2957E+00  0.000E+00  0.000E+00  0.000E+00  1.04968E+03  4.253E-01  6.911E+00  2.419E-01  1.142E+00
   2    8    6     5     4    2.2957E+00  4.9455E-01   1.8011E+00  0.000E+00  0.000E+00  0.000E+00  1.04664E+03  3.856E-01  5.843E+00  1.461E-01  1.129E+00
   2    9    6     6     1    1.8011E+00  1.8011E+00   0.0000E+00  0.000E+00  0.000E+00  0.000E+00  1.04278E+03  5.669E-02  1.200E+01  6.000E-01  1.019E+00
   2   10    7     6     2    0.0000E+00  0.0000E+00   0.0000E+00  0.000E+00  0.000E+00  0.000E+00  1.03818E+03  0.000E+00  1.200E+01  6.000E-01  1.000E+00
   2   11    7     6     3    0.0000E+00  0.0000E+00   0.0000E+00  0.000E+00  0.000E+00  0.000E+00  1.03364E+03  0.000E+00  1.200E+01  6.000E-01  9.430E-01
   2   12    7     6     4    0.0000E+00  0.0000E+00   0.0000E+00  0.000E+00  0.000E+00  0.000E+00  1.02909E+03  0.000E+00  1.200E+01  6.000E-01  1.710E-01
   2   13    7     6     5    0.0000E+00 -7.6486E-01   7.6486E-01  0.000E+00  0.000E+00  0.000E+00  1.02601E+03  9.943E-02  1.200E+01  2.400E-01 -1.062E+00
   2   14    9     7     1    1.5000E+02  2.9616E+00   1.4704E+02  0.000E+00  0.000E+00  0.000E+00  1.03986E+03  2.283E+00  5.528E+01  5.591E+00  1.766E-01
   2   13    8     7     2    1.4704E+02  3.8663E+00   1.4317E+02  0.000E+00  0.000E+00  0.000E+00  1.03477E+03  2.265E+00  5.519E+01  6.140E+00  2.099E-01
   2   13    7     7     3    1.4317E+02  2.6283E+00   1.4054E+02  0.000E+00  0.000E+00  0.000E+00  1.02967E+03  2.248E+00  5.511E+01  5.573E+00  1.572E-01
   2   13    6     8     1    1.4131E+02  3.9240E-01   1.4094E+02  1.966E-02  0.000E+00  0.000E+00  1.02463E+03  2.753E+00  3.992E+01  4.068E+00  3.215E-02
   2   13    5     8     2    1.4094E+02 -3.0146E+00   1.4397E+02  1.966E-02  0.000E+00  0.000E+00  1.01839E+03  2.763E+00  4.006E+01  4.082E+00 -2.462E-01
   2   13    4     8     3    1.4397E+02 -5.8688E+00   1.4986E+02  1.966E-02  0.000E+00  0.000E+00  1.01217E+03  2.795E+00  4.053E+01  4.130E+00 -4.737E-01
   2   13    3     8     4    1.4986E+02 -6.2090E+00   1.5609E+02  1.966E-02  0.000E+00  0.000E+00  1.00596E+03  2.838E+00  4.115E+01  4.193E+00 -4.936E-01
   2   13    2     8     5    1.5609E+02 -3.5286E+00   1.5964E+02  1.966E-02  0.000E+00  0.000E+00  9.99746E+02  2.871E+00  4.163E+01  4.243E+00 -2.772E-01
   2   13    1     8     6    1.5964E+02 -2.1600E+00   1.6181E+02  1.180E-02  0.000E+00  0.000E+00  9.94766E+02  2.891E+00  4.192E+01  2.563E+00 -2.809E-01
   2    4    5     9     1    0.0000E+00  0.0000E+00   0.0000E+00  0.000E+00  0.000E+00  0.000E+00  1.06000E+03  0.000E+00  2.000E+01  2.000E-03  1.000E+00
   2    4    5    10     1    0.0000E+00  0.0000E+00   0.0000E+00  0.000E+00  0.000E+00  0.000E+00  1.08000E+03  0.000E+00  2.000E+01  2.000E-03  1.000E+00



 ..........LAKE  1 IS DRY..........


UNSATURATED ZONE PACKAGE VOLUMETRIC BUDGET FOR  TIME STEP   120 STRESS PERIOD   12
  ------------------------------------------------------------------------------



     CUMULATIVE VOLUMES      L**3       RATES FOR THIS TIME STEP      L**3/T
     ------------------                 ------------------------

           IN:                                      IN:
           ---                                      ---
        INFILTRATION =  1807367173.6374          INFILTRATION =           8.4454

          OUT:                                     OUT:
          ----                                     ----
              UZF ET =  1725592366.9355                UZF ET =           8.3359
        UZF RECHARGE =   764067264.1027          UZF RECHARGE =           0.9389

            IN - OUT =  -682292457.4008              IN - OUT =          -0.8293

          STORAGE:                                 STORAGE:
          --------                                 --------
      STORAGE CHANGE =  -681519454.6281        STORAGE CHANGE =          -0.8293

 PERCENT DISCREPANCY IS DIFFERENCE BETWEEN IN-OUT MINUS CHANGE IN STORAGE
 DIVIDED BY THE AVERAGE OF IN AND OUT TIMES 100

 PERCENT DISCREPANCY =          -0.01     PERCENT DISCREPANCY =          -0.00






1
  VOLUMETRIC BUDGET FOR ENTIRE MODEL AT END OF TIME STEP  120, STRESS PERIOD  12
  ------------------------------------------------------------------------------

     CUMULATIVE VOLUMES      L**3       RATES FOR THIS TIME STEP      L**3/T
     ------------------                 ------------------------

           IN:                                      IN:
           ---                                      ---
             STORAGE     =   756565184.0000               STORAGE     =          17.0909
       CONSTANT HEAD     =           0.0000         CONSTANT HEAD     =           0.0000
               WELLS     =           0.0000                 WELLS     =           0.0000
     HEAD DEP BOUNDS     =    10726999.0000       HEAD DEP BOUNDS     =           0.2153
      STREAM LEAKAGE     =  2582764288.0000        STREAM LEAKAGE     =          22.3486
       LAKE  SEEPAGE     =           0.0000         LAKE  SEEPAGE     =           0.0000
        UZF RECHARGE     =   764066944.0000          UZF RECHARGE     =           0.9389
               GW ET     =           0.0000                 GW ET     =           0.0000
     SURFACE LEAKAGE     =           0.0000       SURFACE LEAKAGE     =           0.0000

                TOTAL IN =  4114123264.0000                  TOTAL IN =          40.5937

          OUT:                                     OUT:
          ----                                     ----
             STORAGE     =  1841161216.0000               STORAGE     =           2.8525
       CONSTANT HEAD     =           0.0000         CONSTANT HEAD     =           0.0000
               WELLS     =   394200000.0000                 WELLS     =           0.0000
     HEAD DEP BOUNDS     =    14872236.0000       HEAD DEP BOUNDS     =           0.2891
      STREAM LEAKAGE     =   983640640.0000        STREAM LEAKAGE     =          21.5458
       LAKE  SEEPAGE     =           0.0000         LAKE  SEEPAGE     =           0.0000
        UZF RECHARGE     =           0.0000          UZF RECHARGE     =           0.0000
               GW ET     =   787576704.0000                 GW ET     =          15.7993
     SURFACE LEAKAGE     =    92603608.0000       SURFACE LEAKAGE     =           0.1056

               TOTAL OUT =  4114054400.0000                 TOTAL OUT =          40.5923

                IN - OUT =       68864.0000                  IN - OUT =       1.4000E-03

     PERCENT DISCREPANCY =           0.00         PERCENT DISCREPANCY =           0.00






         TIME SUMMARY AT END OF TIME STEP  120 IN STRESS PERIOD   12
                    SECONDS     MINUTES      HOURS       DAYS        YEARS
                    -----------------------------------------------------------
   TIME STEP LENGTH 1.75200E+05  2920.0      48.667      2.0278     5.55175E-03
 STRESS PERIOD TIME 2.10240E+07 3.50400E+05  5840.0      243.33     0.66621    
         TOTAL TIME 4.99320E+07 8.32200E+05  13870.      577.92      1.5822    
1


 Run end date and time (yyyy/mm/dd hh:mm:ss): 2021/11/04 11:27:32
 Elapsed run time: 0.896 Seconds

