==========================================================================
Command line: 
..\..\..\bin\gsflow  .\prms.control

number of command line words: 2

Executable: ..\..\..\bin\gsflow

==========================================================================
Control File: .\prms.control
==========================================================================


                          U.S. Geological Survey
        Coupled Groundwater and Surface-water FLOW model (GSFLOW)
                         Version: 2.2.0 03/22/2024

    An integration of the Precipitation-Runoff Modeling System (PRMS)
    and the Modular Groundwater Model (MODFLOW-NWT and MODFLOW-2005)




               Precipitation-Runoff Modeling System (PRMS)
                       Version 6.0.0 03/10/2024

--------------------------------------------------------------------
        Process            Available Modules
--------------------------------------------------------------------
  Basin Definition: basin
    Cascading Flow: cascade
  Time Series Data: obs, water_use_read, dynamic_param_read
                    dynamic_soil_param_read
   Potet Solar Rad: soltab
  Temperature Dist: temp_1sta, temp_laps, temp_dist2, climate_hru,
                    temp_map
       Precip Dist: precip_1sta, precip_laps, precip_dist2,
                    climate_hru, precip_map
Temp & Precip Dist: xyz_dist, ide_dist
    Solar Rad Dist: ccsolrad, ddsolrad, climate_hru
Transpiration Dist: transp_tindex, climate_hru, transp_frost
      Potential ET: potet_hamon, potet_jh, potet_pan, climate_hru,
                    potet_hs, potet_pt, potet_pm, potet_pm_sta
      Interception: intcp
Snow & Glacr Dynam: snowcomp, glacr_melt
    Surface Runoff: srunoff_smidx, srunoff_carea
         Soil Zone: soilzone, soilzone_ag
       Groundwater: gwflow
Streamflow Routing: strmflow, strmflow_in_out, muskingum,
                    muskingum_lake, muskingum_mann, segment_to_hru
Streamflow Charact: strmflow_character
Stream Temperature: stream_temp
    Output Summary: basin_sum, subbasin, map_results, prms_summary,
                    nhru_summary, nsub_summary, water_balance
                    basin_summary, nsegment_summary, statvar_out
     Preprocessing: write_climate_hru, frost_date
--------------------------------------------------------------------

    Github Commit Hash a036995c883ac16cd752bd73b6def0958eae4ae1





    Active modules listed in the order in which they are called

        Process                    Module         Version Date
==============================================================
Execution start date and time (yyyy/mm/dd hh:mm:ss) 2024/03/21 16:56:00

PRMS Computation Order          gsflow_prms         2024-03-10
Read Control File               read_control_file   2024-03-01
Read Parameter File             read_parameter_file 2024-03-01
Read Data File                  read_data_file      2023-06-02
Basin Definition                basin               2024-01-22
Cascading Flow                  cascade             2023-11-01
Common States and Fluxes        climateflow         2024-01-28
Potential Solar Radiation       soltab              2024-01-22
Time Series Data                obs                 2023-11-01
Timestep Control                prms_time           2023-11-01
Temperature Distribution        temp_1sta           2023-11-01
Precipitation Distribution      precip_1sta         2023-11-01
Solar Radiation Distribution    ddsolrad            2024-02-08
Transpiration Distribution      transp_tindex       2023-11-01
Potential Evapotranspiration    potet_jh            2021-08-13
Canopy Interception             intcp               2024-01-10
Snow Dynamics                   snowcomp            2024-02-28
Surface Runoff                  srunoff_smidx       2024-03-21
Soilzone Computations           soilzone            2024-03-21
Groundwater                     gwflow              2024-01-22
Streamflow Routing Init         routing             2024-02-09
Streamflow Routing              strmflow_in_out     2024-01-11
Output Summary                  basin_sum           2024-01-22
Output Summary                  subbasin            2023-11-01
Output Summary                  nhru_summary        2024-03-13
Output Summary                  basin_summary       2023-11-01
==============================================================

Using Control File: .\prms.control

Using Parameter File: ..\input\prms\prms.params

Writing PRMS Water Budget File: ..\output\prms\sagehen_prms_only.out

WARNING, pref_flow_infil_frac not specified, substituting pref_flow_den
  
 WARNING, parameter: pref_flow_infil_frac is not specified
          Set to default value:  -1.000000    

Simulation time period: 1980/10/01 - 1996/09/30

==========================================================================


                          =========================
                          Normal completion of PRMS
                          =========================

Execution start date and time (yyyy/mm/dd hh:mm:ss) 2024/03/21 16:56:00

Execution end   date and time (yyyy/mm/dd hh:mm:ss) 2024/03/21 16:56:01

Execution elapsed time    0 minutes  1.04 seconds

