==========================================================================
Command line: 
..\..\bin\gsflow  .\control\gulkana.control

number of command line words: 2

Executable: ..\..\bin\gsflow

==========================================================================
Control File: .\control\gulkana.control
 WARNING, control parameter not used: naniOutVars, ignored
 WARNING, control parameter not used: dispVar_element, ignored
 WARNING, control parameter not used: mbInit_flag, ignored
==========================================================================

                          U.S. Geological Survey
        Coupled Groundwater and Surface-water FLOW model (GSFLOW)
                         Version: 2.4.0 09/01/2024

    An integration of the Precipitation-Runoff Modeling System (PRMS)
    and the Modular Groundwater Model (MODFLOW-NWT and MODFLOW-2005)

 WARNING, control parameter not in Control File: mbInit_flag, set to 0


               Precipitation-Runoff Modeling System (PRMS)
                       Version 6.0.0 09/01/2024

--------------------------------------------------------------------
        Process            Available Modules
--------------------------------------------------------------------
  Basin Definition: basin
    Cascading Flow: cascade
  Time Series Data: obs, water_use_read, dynamic_param_read
                    dynamic_soil_param_read
   Potet Solar Rad: soltab
  Temperature Dist: temp_1sta, temp_laps, temp_dist2, climate_hru,
                    temp_map
       Precip Dist: precip_1sta, precip_laps, precip_dist2,
                    climate_hru, precip_map
Temp & Precip Dist: xyz_dist, ide_dist
    Solar Rad Dist: ccsolrad, ddsolrad, climate_hru
Transpiration Dist: transp_tindex, climate_hru, transp_frost
      Potential ET: potet_hamon, potet_jh, potet_pan, climate_hru,
                    potet_hs, potet_pt, potet_pm, potet_pm_sta
      Interception: intcp
Snow & Glacr Dynam: snowcomp, glacr_melt
    Surface Runoff: srunoff_smidx, srunoff_carea
         Soil Zone: soilzone, soilzone_ag
       Groundwater: gwflow
Streamflow Routing: strmflow, strmflow_in_out, muskingum,
                    muskingum_lake, muskingum_mann, segment_to_hru
Streamflow Charact: strmflow_character
Stream Temperature: stream_temp
    Output Summary: basin_sum, subbasin, map_results, prms_summary,
                    nhru_summary, nsub_summary, water_balance
                    basin_summary, nsegment_summary, statvar_out
     Preprocessing: write_climate_hru, frost_date
--------------------------------------------------------------------

Github Commit Hash 87c870f3a2809a167698e4f88a354886415f6afa

Execution start date and time (yyyy/mm/dd hh:mm:ss) 2024/09/24 11:32:48


==========================================================================
Please give careful consideration to fixing all ERROR and WARNING messages
==========================================================================


--------------------------------------------------------------------
    Active modules listed in the order in which they are called
--------------------------------------------------------------------
        Process                    Module         Version Date
==============================================================
PRMS Computation Order          gsflow_prms         2024-09-01
Read Control File               read_control_file   2024-08-01
Read Parameter File             read_parameter_file 2024-08-27
Read Data File                  read_data_file      2023-06-02
Basin Definition                basin               2024-08-09
Common States and Fluxes        climateflow         2024-08-09
Potential Solar Radiation       soltab              2024-01-22
Time Series Data                obs                 2023-11-01
Timestep Control                prms_time           2023-11-01
Temp & Precip Distribution      xyz_dist            2024-04-30
Solar Radiation Distribution    ccsolrad            2024-04-04
Transpiration Distribution      transp_tindex       2023-11-01
Potential Evapotranspiration    potet_jh            2021-08-13
Canopy Interception             intcp               2024-04-04
Snow Dynamics                   snowcomp            2024-04-30
Glacier Dynamics                glacr_melt          2024-04-04
Surface Runoff                  srunoff_smidx       2024-04-04
Soilzone Computations           soilzone            2024-06-20
Groundwater                     gwflow              2024-05-30
Streamflow Routing Init         routing             2024-08-13
Streamflow Routing              muskingum           2023-11-01
Output Summary                  basin_sum           2024-04-30
Statistics Variables Output     statvar_out         2021-09-08
Output Summary                  prms_summary        2024-04-30
WARNING, parameter: poi_type is ignored as it is not used
WARNING, parameter: stage_coef is ignored as it is not used
WARNING, parameter: net_mbc_zero is ignored as it is not used
WARNING, parameter: stage_exp is ignored as it is not used
WARNING, parameter: net_ard_zero is ignored as it is not used
WARNING, parameter: snowfld_frac_init is ignored as it is not used
==============================================================

Using Control File: .\control\gulkana.control

Using Parameter File: ./input/gulkana.par

Writing PRMS Water Budget File: ./output/gulkana.out
  
 WARNING, parameter: pref_flow_infil_frac is not specified
          Set to default value:  -1.000000    
 WARNING, parameter: poi_gage_id is not specified

Simulation time period: 1971/10/01 - 2015/09/30

==========================================================================


                          =========================
                          Normal completion of PRMS
                          =========================


Execution start date and time (yyyy/mm/dd hh:mm:ss) 2024/09/24 11:32:48


Execution end   date and time (yyyy/mm/dd hh:mm:ss) 2024/09/24 11:32:50

Execution elapsed time    0 minutes  2.71 seconds

