==========================================================================
Command line: 
..\..\bin\gsflow  .\control\gulkana.control

number of command line words: 2

Executable: ..\..\bin\gsflow

==========================================================================
Control File: .\control\gulkana.control
 WARNING, control parameter not used: naniOutVars, ignored
 WARNING, control parameter not used: dispVar_element, ignored
 WARNING, control parameter not used: mbInit_flag, ignored
==========================================================================


                          U.S. Geological Survey
        Coupled Groundwater and Surface-water FLOW model (GSFLOW)
                         Version: 2.3.0 02/14/2023

    An integration of the Precipitation-Runoff Modeling System (PRMS)
    and the Modular Groundwater Model (MODFLOW-NWT and MODFLOW-2005)

 WARNING, control parameter not in Control File: mbInit_flag, set to 0
Execution start date and time (yyyy/mm/dd hh:mm:ss) 2023/02/16 10:11:50


               Precipitation-Runoff Modeling System (PRMS)
                       Version 5.3.0 01/25/2023

        Process            Available Modules
--------------------------------------------------------------------
  Basin Definition: basin
    Cascading Flow: cascade
  Time Series Data: obs, water_use_read, dynamic_param_read
                    dynamic_soil_param_read
   Potet Solar Rad: soltab
  Temperature Dist: temp_1sta, temp_laps, temp_dist2, climate_hru,
                    temp_map
       Precip Dist: precip_1sta, precip_laps, precip_dist2,
                    climate_hru, precip_map
Temp & Precip Dist: xyz_dist, ide_dist
    Solar Rad Dist: ccsolrad, ddsolrad, climate_hru, cloud_cover
Transpiration Dist: transp_tindex, climate_hru, transp_frost
      Potential ET: potet_hamon, potet_jh, potet_pan, climate_hru,
                    potet_hs, potet_pt, potet_pm, potet_pm_sta
      Interception: intcp
Snow & Glacr Dynam: snowcomp, glacr_melt
    Surface Runoff: srunoff_smidx, srunoff_carea
         Soil Zone: soilzone, soilzone_ag
       Groundwater: gwflow
Streamflow Routing: strmflow, strmflow_in_out, muskingum,
                    muskingum_lake, muskingum_mann, segment_to_hru
Streamflow Charact: strmflow_character
Stream Temperature: stream_temp
    Output Summary: basin_sum, subbasin, map_results, prms_summary,
                    nhru_summary, nsub_summary, water_balance
                    basin_summary, nsegment_summary, statvar_out
     Preprocessing: write_climate_hru, frost_date
--------------------------------------------------------------------


==========================================================================
Please give careful consideration to fixing all ERROR and WARNING messages
==========================================================================


    Active modules listed in the order in which they are called

        Process                    Module         Version Date
==============================================================
PRMS Computation Order          gsflow_prms         2023-01-25
Read Control File               read_control_file   2022-10-20
Read Parameter File             read_parameter_file 2022-01-12
Read Data File                  read_data_file      2022-06-02
Basin Definition                basin               2023-01-11
Common States and Fluxes        climateflow         2023-01-11
Potential Solar Radiation       soltab              2022-10-24
Time Series Data                obs                 2022-09-07
Timestep Control                prms_time           2022-04-21
Temp & Precip Distribution      xyz_dist            2022-09-07
Cloud cover                     cloud_cover         2022-06-07
Solar Radiation Distribution    ccsolrad            2022-09-01
Transpiration Distribution      transp_tindex       2021-09-07
Potential Evapotranspiration    potet_jh            2021-11-19
Canopy Interception             intcp               2022-10-26
Snow Dynamics                   snowcomp            2023-02-08
Glacier Dynamics                glacr_melt          2022-09-07
 Parameter: hru_slope declared more than once
 First declared by module: glacr_melt
 Also declared by module: glacr_melt
 Model uses values based on first declare
Surface Runoff                  srunoff_smidx       2022-11-02
Soilzone Computations           soilzone            2023-01-25
Groundwater                     gwflow              2022-04-21
Streamflow Routing Init         routing             2022-09-07
Streamflow Routing              muskingum           2021-11-19
Output Summary                  basin_sum           2022-09-01
Statistics Variables Output     statvar_out         2021-09-08
Output Summary                  prms_summary        2023-01-26
WARNING, parameter: poi_type is ignored as it is not used
WARNING, parameter: stage_coef is ignored as it is not used
WARNING, parameter: net_mbc_zero is ignored as it is not used
WARNING, parameter: stage_exp is ignored as it is not used
WARNING, parameter: net_ard_zero is ignored as it is not used
WARNING, parameter: snowfld_frac_init is ignored as it is not used
==============================================================

Using Control File: .\control\gulkana.control


Using Parameter File: ./input/gulkana.par


Writing PRMS Water Budget File: ./output/gulkana.out

 WARNING, pref_flow_infil_frac not specified, substituting pref_flow_den
  
 WARNING, parameter: pref_flow_infil_frac is not specified
          Set to default value:  -1.000000    
 WARNING, parameter: poi_gage_id is not specified

Simulation time period: 1971/10/01 - 2015/09/30

==========================================================================


                          ===========================
                          Normal completion of GSFLOW
                          ===========================

Execution start date and time (yyyy/mm/dd hh:mm:ss) 2023/02/16 10:11:50

Execution end   date and time (yyyy/mm/dd hh:mm:ss) 2023/02/16 10:11:54

Execution elapsed time    0 minutes  3.56 seconds

