1
 SUMMARY VOLUMETRIC BUDGET FOR GSFLOW 
 DATE: 10 07 1980              CUMULATIVE TIME STEP:       7
 MODFLOW STRESS PERIOD      2     CURRENT TIME STEP:       7     ITERATIONS:       4

 -----------------------------------------------------------------------------------

   CUMULATIVE VOLUMES               L**3   RATES FOR THIS TIME STEP           L**3/T
   ------------------                      ------------------------

                                     IN                                         IN
                                     --                                         --
        PRECIPITATION =                            PRECIPITATION =                  
           STREAMFLOW =                               STREAMFLOW =                  
     GW BOUNDARY FLOW =                         GW BOUNDARY FLOW =                  


                                    OUT                                        OUT
                                    ---                                        ---
   EVAPOTRANSPIRATION =          63052.02     EVAPOTRANSPIRATION =           9234.40
           STREAMFLOW =          43081.79             STREAMFLOW =           6083.36
     GW BOUNDARY FLOW =           5067.91       GW BOUNDARY FLOW =            723.89

   INFLOWS - OUTFLOWS =        -111201.71     INFLOWS - OUTFLOWS =         -16041.66
             --------                                   --------

 TOTAL STORAGE CHANGE =        -110967.58         STORAGE CHANGE =         -16007.41
       --------------                             --------------
         LAND SURFACE =                             LAND SURFACE =                  
            SOIL ZONE =          47393.18              SOIL ZONE =           6452.18
     UNSATURATED ZONE =        -144965.30       UNSATURATED ZONE =         -20382.35
       SATURATED ZONE =         -13395.46         SATURATED ZONE =          -2077.23

 OVERALL BUDGET ERROR =           -234.13           BUDGET ERROR =            -34.25


  PERCENT DISCREPANCY =             -0.21    PERCENT DISCREPANCY =             -0.21



1
 SUMMARY VOLUMETRIC BUDGET FOR GSFLOW 
 DATE: 10 14 1980              CUMULATIVE TIME STEP:      14
 MODFLOW STRESS PERIOD      2     CURRENT TIME STEP:      14     ITERATIONS:       4

 -----------------------------------------------------------------------------------

   CUMULATIVE VOLUMES               L**3   RATES FOR THIS TIME STEP           L**3/T
   ------------------                      ------------------------

                                     IN                                         IN
                                     --                                         --
        PRECIPITATION =         650779.83          PRECIPITATION =         164754.40
           STREAMFLOW =                               STREAMFLOW =                  
     GW BOUNDARY FLOW =                         GW BOUNDARY FLOW =                  


                                    OUT                                        OUT
                                    ---                                        ---
   EVAPOTRANSPIRATION =         147619.36     EVAPOTRANSPIRATION =           7972.95
           STREAMFLOW =          92731.15             STREAMFLOW =           7469.23
     GW BOUNDARY FLOW =          10135.61       GW BOUNDARY FLOW =            724.11

   INFLOWS - OUTFLOWS =         400293.72     INFLOWS - OUTFLOWS =         148588.10
             --------                                   --------

 TOTAL STORAGE CHANGE =         400762.07         STORAGE CHANGE =         148623.34
       --------------                             --------------
         LAND SURFACE =         277689.24           LAND SURFACE =         136623.45
            SOIL ZONE =         436723.83              SOIL ZONE =          34108.04
     UNSATURATED ZONE =        -284617.09       UNSATURATED ZONE =         -19599.40
       SATURATED ZONE =         -29033.92         SATURATED ZONE =          -2508.74

 OVERALL BUDGET ERROR =           -468.35           BUDGET ERROR =            -35.24


  PERCENT DISCREPANCY =             -0.07    PERCENT DISCREPANCY =             -0.02



1
 SUMMARY VOLUMETRIC BUDGET FOR GSFLOW 
 DATE: 10 21 1980              CUMULATIVE TIME STEP:      21
 MODFLOW STRESS PERIOD      2     CURRENT TIME STEP:      21     ITERATIONS:       5

 -----------------------------------------------------------------------------------

   CUMULATIVE VOLUMES               L**3   RATES FOR THIS TIME STEP           L**3/T
   ------------------                      ------------------------

                                     IN                                         IN
                                     --                                         --
        PRECIPITATION =         733157.03          PRECIPITATION =                  
           STREAMFLOW =                               STREAMFLOW =                  
     GW BOUNDARY FLOW =                         GW BOUNDARY FLOW =                  


                                    OUT                                        OUT
                                    ---                                        ---
   EVAPOTRANSPIRATION =         375888.87     EVAPOTRANSPIRATION =          36804.76
           STREAMFLOW =         144621.11             STREAMFLOW =           7058.84
     GW BOUNDARY FLOW =          15203.74       GW BOUNDARY FLOW =            723.94

   INFLOWS - OUTFLOWS =         197443.31     INFLOWS - OUTFLOWS =         -44587.54
             --------                                   --------

 TOTAL STORAGE CHANGE =         198132.27         STORAGE CHANGE =         -44557.34
       --------------                             --------------
         LAND SURFACE =           2250.88           LAND SURFACE =          -3153.72
            SOIL ZONE =         662992.50              SOIL ZONE =         -19494.81
     UNSATURATED ZONE =        -418520.85       UNSATURATED ZONE =         -18753.74
       SATURATED ZONE =         -48590.27         SATURATED ZONE =          -3155.07

 OVERALL BUDGET ERROR =           -688.96           BUDGET ERROR =            -30.20


  PERCENT DISCREPANCY =             -0.09    PERCENT DISCREPANCY =             -0.07



1
 SUMMARY VOLUMETRIC BUDGET FOR GSFLOW 
 DATE: 10 28 1980              CUMULATIVE TIME STEP:      28
 MODFLOW STRESS PERIOD      2     CURRENT TIME STEP:      28     ITERATIONS:       5

 -----------------------------------------------------------------------------------

   CUMULATIVE VOLUMES               L**3   RATES FOR THIS TIME STEP           L**3/T
   ------------------                      ------------------------

                                     IN                                         IN
                                     --                                         --
        PRECIPITATION =        1070903.53          PRECIPITATION =                  
           STREAMFLOW =                               STREAMFLOW =                  
     GW BOUNDARY FLOW =                         GW BOUNDARY FLOW =                  


                                    OUT                                        OUT
                                    ---                                        ---
   EVAPOTRANSPIRATION =         556723.42     EVAPOTRANSPIRATION =          23594.60
           STREAMFLOW =         199386.00             STREAMFLOW =           8004.53
     GW BOUNDARY FLOW =          20271.41       GW BOUNDARY FLOW =            724.02

   INFLOWS - OUTFLOWS =         294522.70     INFLOWS - OUTFLOWS =         -32323.15
             --------                                   --------

 TOTAL STORAGE CHANGE =         295433.04         STORAGE CHANGE =         -32288.96
       --------------                             --------------
         LAND SURFACE =          24619.51           LAND SURFACE =         -30948.99
            SOIL ZONE =         889820.13              SOIL ZONE =          20242.29
     UNSATURATED ZONE =        -546588.14       UNSATURATED ZONE =         -17916.53
       SATURATED ZONE =         -72418.46         SATURATED ZONE =          -3665.73

 OVERALL BUDGET ERROR =           -910.34           BUDGET ERROR =            -34.19


  PERCENT DISCREPANCY =             -0.08    PERCENT DISCREPANCY =             -0.11



1
 SUMMARY VOLUMETRIC BUDGET FOR GSFLOW 
 DATE: 11 04 1980              CUMULATIVE TIME STEP:      35
 MODFLOW STRESS PERIOD      2     CURRENT TIME STEP:      35     ITERATIONS:       6

 -----------------------------------------------------------------------------------

   CUMULATIVE VOLUMES               L**3   RATES FOR THIS TIME STEP           L**3/T
   ------------------                      ------------------------

                                     IN                                         IN
                                     --                                         --
        PRECIPITATION =        1070903.53          PRECIPITATION =                  
           STREAMFLOW =                               STREAMFLOW =                  
     GW BOUNDARY FLOW =                         GW BOUNDARY FLOW =                  


                                    OUT                                        OUT
                                    ---                                        ---
   EVAPOTRANSPIRATION =         854400.53     EVAPOTRANSPIRATION =          38393.54
           STREAMFLOW =         252108.93             STREAMFLOW =           7055.89
     GW BOUNDARY FLOW =          25338.71       GW BOUNDARY FLOW =            723.81

   INFLOWS - OUTFLOWS =         -60944.64     INFLOWS - OUTFLOWS =         -46173.24
             --------                                   --------

 TOTAL STORAGE CHANGE =         -59831.31         STORAGE CHANGE =         -46146.32
       --------------                             --------------
         LAND SURFACE =                             LAND SURFACE =                  
            SOIL ZONE =         710487.69              SOIL ZONE =         -24522.70
     UNSATURATED ZONE =        -669480.17       UNSATURATED ZONE =         -17299.73
       SATURATED ZONE =        -100838.83         SATURATED ZONE =          -4323.88

 OVERALL BUDGET ERROR =          -1113.33           BUDGET ERROR =            -26.93


  PERCENT DISCREPANCY =             -0.10    PERCENT DISCREPANCY =             -0.06



1
 SUMMARY VOLUMETRIC BUDGET FOR GSFLOW 
 DATE: 11 11 1980              CUMULATIVE TIME STEP:      42
 MODFLOW STRESS PERIOD      2     CURRENT TIME STEP:      42     ITERATIONS:       5

 -----------------------------------------------------------------------------------

   CUMULATIVE VOLUMES               L**3   RATES FOR THIS TIME STEP           L**3/T
   ------------------                      ------------------------

                                     IN                                         IN
                                     --                                         --
        PRECIPITATION =        1573762.54          PRECIPITATION =         255182.19
           STREAMFLOW =                               STREAMFLOW =                  
     GW BOUNDARY FLOW =                         GW BOUNDARY FLOW =                  


                                    OUT                                        OUT
                                    ---                                        ---
   EVAPOTRANSPIRATION =        1065572.17     EVAPOTRANSPIRATION =          14936.71
           STREAMFLOW =         308224.25             STREAMFLOW =          10759.28
     GW BOUNDARY FLOW =          30405.65       GW BOUNDARY FLOW =            724.07

   INFLOWS - OUTFLOWS =         169560.48     INFLOWS - OUTFLOWS =         228762.13
             --------                                   --------

 TOTAL STORAGE CHANGE =         170879.36         STORAGE CHANGE =         228790.84
       --------------                             --------------
         LAND SURFACE =          78612.95           LAND SURFACE =          76659.87
            SOIL ZONE =        1011656.90              SOIL ZONE =         172703.07
     UNSATURATED ZONE =        -787592.36       UNSATURATED ZONE =         -16457.36
       SATURATED ZONE =        -131798.14         SATURATED ZONE =          -4114.74

 OVERALL BUDGET ERROR =          -1318.88           BUDGET ERROR =            -28.71


  PERCENT DISCREPANCY =             -0.08    PERCENT DISCREPANCY =             -0.01



1
 SUMMARY VOLUMETRIC BUDGET FOR GSFLOW 
 DATE: 11 18 1980              CUMULATIVE TIME STEP:      49
 MODFLOW STRESS PERIOD      2     CURRENT TIME STEP:      49     ITERATIONS:       5

 -----------------------------------------------------------------------------------

   CUMULATIVE VOLUMES               L**3   RATES FOR THIS TIME STEP           L**3/T
   ------------------                      ------------------------

                                     IN                                         IN
                                     --                                         --
        PRECIPITATION =        1573762.54          PRECIPITATION =                  
           STREAMFLOW =                               STREAMFLOW =                  
     GW BOUNDARY FLOW =                         GW BOUNDARY FLOW =                  


                                    OUT                                        OUT
                                    ---                                        ---
   EVAPOTRANSPIRATION =        1154164.50     EVAPOTRANSPIRATION =          16737.74
           STREAMFLOW =         371541.59             STREAMFLOW =           9405.26
     GW BOUNDARY FLOW =          35474.19       GW BOUNDARY FLOW =            724.11

   INFLOWS - OUTFLOWS =          12582.27     INFLOWS - OUTFLOWS =         -26867.12
             --------                                   --------

 TOTAL STORAGE CHANGE =          14099.84         STORAGE CHANGE =         -26839.49
       --------------                             --------------
         LAND SURFACE =           8654.86           LAND SURFACE =          -6203.23
            SOIL ZONE =        1071933.21              SOIL ZONE =            280.88
     UNSATURATED ZONE =        -900931.75       UNSATURATED ZONE =         -15938.39
       SATURATED ZONE =        -165556.48         SATURATED ZONE =          -4978.74

 OVERALL BUDGET ERROR =          -1517.57           BUDGET ERROR =            -27.63


  PERCENT DISCREPANCY =             -0.10    PERCENT DISCREPANCY =             -0.10



1
 SUMMARY VOLUMETRIC BUDGET FOR GSFLOW 
 DATE: 11 25 1980              CUMULATIVE TIME STEP:      56
 MODFLOW STRESS PERIOD      2     CURRENT TIME STEP:      56     ITERATIONS:       6

 -----------------------------------------------------------------------------------

   CUMULATIVE VOLUMES               L**3   RATES FOR THIS TIME STEP           L**3/T
   ------------------                      ------------------------

                                     IN                                         IN
                                     --                                         --
        PRECIPITATION =        1648816.13          PRECIPITATION =                  
           STREAMFLOW =                               STREAMFLOW =                  
     GW BOUNDARY FLOW =                         GW BOUNDARY FLOW =                  


                                    OUT                                        OUT
                                    ---                                        ---
   EVAPOTRANSPIRATION =        1229751.10     EVAPOTRANSPIRATION =           8792.74
           STREAMFLOW =         438848.79             STREAMFLOW =           9929.92
     GW BOUNDARY FLOW =          40543.26       GW BOUNDARY FLOW =            724.19

   INFLOWS - OUTFLOWS =         -60327.02     INFLOWS - OUTFLOWS =         -19446.86
             --------                                   --------

 TOTAL STORAGE CHANGE =         -58625.71         STORAGE CHANGE =         -19423.90
       --------------                             --------------
         LAND SURFACE =          55166.83           LAND SURFACE =          -8744.58
            SOIL ZONE =        1098911.87              SOIL ZONE =          10140.85
     UNSATURATED ZONE =       -1010096.43       UNSATURATED ZONE =         -15333.01
       SATURATED ZONE =        -202607.98         SATURATED ZONE =          -5487.16

 OVERALL BUDGET ERROR =          -1701.31           BUDGET ERROR =            -22.96


  PERCENT DISCREPANCY =             -0.10    PERCENT DISCREPANCY =             -0.12



1
 SUMMARY VOLUMETRIC BUDGET FOR GSFLOW 
 DATE: 12 02 1980              CUMULATIVE TIME STEP:      63
 MODFLOW STRESS PERIOD      2     CURRENT TIME STEP:      63     ITERATIONS:       5

 -----------------------------------------------------------------------------------

   CUMULATIVE VOLUMES               L**3   RATES FOR THIS TIME STEP           L**3/T
   ------------------                      ------------------------

                                     IN                                         IN
                                     --                                         --
        PRECIPITATION =        2076621.55          PRECIPITATION =                  
           STREAMFLOW =                               STREAMFLOW =                  
     GW BOUNDARY FLOW =                         GW BOUNDARY FLOW =                  


                                    OUT                                        OUT
                                    ---                                        ---
   EVAPOTRANSPIRATION =        1423316.33     EVAPOTRANSPIRATION =          34189.30
           STREAMFLOW =         523332.77             STREAMFLOW =          15098.18
     GW BOUNDARY FLOW =          45614.38       GW BOUNDARY FLOW =            724.83

   INFLOWS - OUTFLOWS =          84358.08     INFLOWS - OUTFLOWS =         -50012.31
             --------                                   --------

 TOTAL STORAGE CHANGE =          86245.72         STORAGE CHANGE =         -49985.19
       --------------                             --------------
         LAND SURFACE =         152551.10           LAND SURFACE =         -75205.42
            SOIL ZONE =        1284274.61              SOIL ZONE =          42823.61
     UNSATURATED ZONE =       -1111074.49       UNSATURATED ZONE =         -12900.15
       SATURATED ZONE =        -239505.49         SATURATED ZONE =          -4703.23

 OVERALL BUDGET ERROR =          -1887.65           BUDGET ERROR =            -27.12


  PERCENT DISCREPANCY =             -0.09    PERCENT DISCREPANCY =             -0.05



1
 SUMMARY VOLUMETRIC BUDGET FOR GSFLOW 
 DATE: 12 09 1980              CUMULATIVE TIME STEP:      70
 MODFLOW STRESS PERIOD      2     CURRENT TIME STEP:      70     ITERATIONS:       5

 -----------------------------------------------------------------------------------

   CUMULATIVE VOLUMES               L**3   RATES FOR THIS TIME STEP           L**3/T
   ------------------                      ------------------------

                                     IN                                         IN
                                     --                                         --
        PRECIPITATION =        4284363.63          PRECIPITATION =                  
           STREAMFLOW =                               STREAMFLOW =                  
     GW BOUNDARY FLOW =                         GW BOUNDARY FLOW =                  


                                    OUT                                        OUT
                                    ---                                        ---
   EVAPOTRANSPIRATION =        1446734.70     EVAPOTRANSPIRATION =           2942.43
           STREAMFLOW =         621699.84             STREAMFLOW =          14307.19
     GW BOUNDARY FLOW =          50688.92       GW BOUNDARY FLOW =            725.02

   INFLOWS - OUTFLOWS =        2165240.17     INFLOWS - OUTFLOWS =         -17974.64
             --------                                   --------

 TOTAL STORAGE CHANGE =        2167308.10         STORAGE CHANGE =         -17948.15
       --------------                             --------------
         LAND SURFACE =        2335216.87           LAND SURFACE =          -2942.43
            SOIL ZONE =        1320679.60              SOIL ZONE =           5267.29
     UNSATURATED ZONE =       -1208777.53       UNSATURATED ZONE =         -14158.46
       SATURATED ZONE =        -279810.85         SATURATED ZONE =          -6114.55

 OVERALL BUDGET ERROR =          -2067.92           BUDGET ERROR =            -26.49


  PERCENT DISCREPANCY =             -0.05    PERCENT DISCREPANCY =             -0.15



1
 SUMMARY VOLUMETRIC BUDGET FOR GSFLOW 
 DATE: 12 16 1980              CUMULATIVE TIME STEP:      77
 MODFLOW STRESS PERIOD      2     CURRENT TIME STEP:      77     ITERATIONS:       5

 -----------------------------------------------------------------------------------

   CUMULATIVE VOLUMES               L**3   RATES FOR THIS TIME STEP           L**3/T
   ------------------                      ------------------------

                                     IN                                         IN
                                     --                                         --
        PRECIPITATION =        4284363.63          PRECIPITATION =                  
           STREAMFLOW =                               STREAMFLOW =                  
     GW BOUNDARY FLOW =                         GW BOUNDARY FLOW =                  


                                    OUT                                        OUT
                                    ---                                        ---
   EVAPOTRANSPIRATION =        1588734.04     EVAPOTRANSPIRATION =          33888.80
           STREAMFLOW =         740215.29             STREAMFLOW =          24561.90
     GW BOUNDARY FLOW =          55765.93       GW BOUNDARY FLOW =            725.87

   INFLOWS - OUTFLOWS =        1899648.37     INFLOWS - OUTFLOWS =         -59176.58
             --------                                   --------

 TOTAL STORAGE CHANGE =        1901889.05         STORAGE CHANGE =         -59149.89
       --------------                             --------------
         LAND SURFACE =        2023939.67           LAND SURFACE =        -129021.52
            SOIL ZONE =        1497287.06              SOIL ZONE =          83535.67
     UNSATURATED ZONE =       -1298202.98       UNSATURATED ZONE =          -9035.10
       SATURATED ZONE =        -321134.69         SATURATED ZONE =          -4628.94

 OVERALL BUDGET ERROR =          -2240.68           BUDGET ERROR =            -26.69


  PERCENT DISCREPANCY =             -0.05    PERCENT DISCREPANCY =             -0.05



1
 SUMMARY VOLUMETRIC BUDGET FOR GSFLOW 
 DATE: 12 23 1980              CUMULATIVE TIME STEP:      84
 MODFLOW STRESS PERIOD      2     CURRENT TIME STEP:      84     ITERATIONS:       6

 -----------------------------------------------------------------------------------

   CUMULATIVE VOLUMES               L**3   RATES FOR THIS TIME STEP           L**3/T
   ------------------                      ------------------------

                                     IN                                         IN
                                     --                                         --
        PRECIPITATION =        4516757.54          PRECIPITATION =                  
           STREAMFLOW =                               STREAMFLOW =                  
     GW BOUNDARY FLOW =                         GW BOUNDARY FLOW =                  


                                    OUT                                        OUT
                                    ---                                        ---
   EVAPOTRANSPIRATION =        1794787.14     EVAPOTRANSPIRATION =          35140.32
           STREAMFLOW =         964748.07             STREAMFLOW =          29954.37
     GW BOUNDARY FLOW =          60857.88       GW BOUNDARY FLOW =            728.02

   INFLOWS - OUTFLOWS =        1696364.45     INFLOWS - OUTFLOWS =         -65822.71
             --------                                   --------

 TOTAL STORAGE CHANGE =        1698756.63         STORAGE CHANGE =         -65804.79
       --------------                             --------------
         LAND SURFACE =        1433268.50           LAND SURFACE =         -48191.47
            SOIL ZONE =        1955622.55              SOIL ZONE =          -6834.41
     UNSATURATED ZONE =       -1340146.67       UNSATURATED ZONE =          -6028.29
       SATURATED ZONE =        -349987.75         SATURATED ZONE =          -4750.62

 OVERALL BUDGET ERROR =          -2392.18           BUDGET ERROR =            -17.92


  PERCENT DISCREPANCY =             -0.05    PERCENT DISCREPANCY =             -0.03



1
 SUMMARY VOLUMETRIC BUDGET FOR GSFLOW 
 DATE: 12 30 1980              CUMULATIVE TIME STEP:      91
 MODFLOW STRESS PERIOD      2     CURRENT TIME STEP:      91     ITERATIONS:       7

 -----------------------------------------------------------------------------------

   CUMULATIVE VOLUMES               L**3   RATES FOR THIS TIME STEP           L**3/T
   ------------------                      ------------------------

                                     IN                                         IN
                                     --                                         --
        PRECIPITATION =        4516757.54          PRECIPITATION =                  
           STREAMFLOW =                               STREAMFLOW =                  
     GW BOUNDARY FLOW =                         GW BOUNDARY FLOW =                  


                                    OUT                                        OUT
                                    ---                                        ---
   EVAPOTRANSPIRATION =        2155419.65     EVAPOTRANSPIRATION =          45887.78
           STREAMFLOW =        1206514.70             STREAMFLOW =          26761.23
     GW BOUNDARY FLOW =          65958.33       GW BOUNDARY FLOW =            728.54

   INFLOWS - OUTFLOWS =        1088864.85     INFLOWS - OUTFLOWS =         -73377.56
             --------                                   --------

 TOTAL STORAGE CHANGE =        1091357.15         STORAGE CHANGE =         -73365.30
       --------------                             --------------
         LAND SURFACE =         641159.81           LAND SURFACE =         -40370.18
            SOIL ZONE =        2180729.51              SOIL ZONE =         -23685.09
     UNSATURATED ZONE =       -1355235.26       UNSATURATED ZONE =          -5258.18
       SATURATED ZONE =        -375296.92         SATURATED ZONE =          -4051.86

 OVERALL BUDGET ERROR =          -2492.29           BUDGET ERROR =            -12.26


  PERCENT DISCREPANCY =             -0.06    PERCENT DISCREPANCY =             -0.02



1
 SUMMARY VOLUMETRIC BUDGET FOR GSFLOW 
 DATE: 01 06 1981              CUMULATIVE TIME STEP:      98
 MODFLOW STRESS PERIOD      2     CURRENT TIME STEP:      98     ITERATIONS:       6

 -----------------------------------------------------------------------------------

   CUMULATIVE VOLUMES               L**3   RATES FOR THIS TIME STEP           L**3/T
   ------------------                      ------------------------

                                     IN                                         IN
                                     --                                         --
        PRECIPITATION =        5004445.43          PRECIPITATION =                  
           STREAMFLOW =                               STREAMFLOW =                  
     GW BOUNDARY FLOW =                         GW BOUNDARY FLOW =                  


                                    OUT                                        OUT
                                    ---                                        ---
   EVAPOTRANSPIRATION =        2383344.40     EVAPOTRANSPIRATION =          21388.78
           STREAMFLOW =        1359350.41             STREAMFLOW =          21087.95
     GW BOUNDARY FLOW =          71051.63       GW BOUNDARY FLOW =            727.11

   INFLOWS - OUTFLOWS =        1190698.99     INFLOWS - OUTFLOWS =         -43203.83
             --------                                   --------

 TOTAL STORAGE CHANGE =        1193284.29         STORAGE CHANGE =         -43190.40
       --------------                             --------------
         LAND SURFACE =         837080.27           LAND SURFACE =         -30417.06
            SOIL ZONE =        2191126.57              SOIL ZONE =           3026.34
     UNSATURATED ZONE =       -1420948.96       UNSATURATED ZONE =          -9856.42
       SATURATED ZONE =        -413973.60         SATURATED ZONE =          -5943.26

 OVERALL BUDGET ERROR =          -2585.29           BUDGET ERROR =            -13.43


  PERCENT DISCREPANCY =             -0.05    PERCENT DISCREPANCY =             -0.03



1
 SUMMARY VOLUMETRIC BUDGET FOR GSFLOW 
 DATE: 01 13 1981              CUMULATIVE TIME STEP:     105
 MODFLOW STRESS PERIOD      2     CURRENT TIME STEP:     105     ITERATIONS:       6

 -----------------------------------------------------------------------------------

   CUMULATIVE VOLUMES               L**3   RATES FOR THIS TIME STEP           L**3/T
   ------------------                      ------------------------

                                     IN                                         IN
                                     --                                         --
        PRECIPITATION =        5004445.43          PRECIPITATION =                  
           STREAMFLOW =                               STREAMFLOW =                  
     GW BOUNDARY FLOW =                         GW BOUNDARY FLOW =                  


                                    OUT                                        OUT
                                    ---                                        ---
   EVAPOTRANSPIRATION =        2600857.05     EVAPOTRANSPIRATION =          44455.00
           STREAMFLOW =        1506341.73             STREAMFLOW =          19895.31
     GW BOUNDARY FLOW =          76139.16       GW BOUNDARY FLOW =            726.55

   INFLOWS - OUTFLOWS =         821107.49     INFLOWS - OUTFLOWS =         -65076.86
             --------                                   --------

 TOTAL STORAGE CHANGE =         823803.80         STORAGE CHANGE =         -65062.90
       --------------                             --------------
         LAND SURFACE =         626702.00           LAND SURFACE =         -38991.59
            SOIL ZONE =        2140873.08              SOIL ZONE =         -10365.21
     UNSATURATED ZONE =       -1485677.71       UNSATURATED ZONE =          -9155.01
       SATURATED ZONE =        -458093.58         SATURATED ZONE =          -6551.09

 OVERALL BUDGET ERROR =          -2696.31           BUDGET ERROR =            -13.96


  PERCENT DISCREPANCY =             -0.05    PERCENT DISCREPANCY =             -0.02



1
 SUMMARY VOLUMETRIC BUDGET FOR GSFLOW 
 DATE: 01 20 1981              CUMULATIVE TIME STEP:     112
 MODFLOW STRESS PERIOD      2     CURRENT TIME STEP:     112     ITERATIONS:       6

 -----------------------------------------------------------------------------------

   CUMULATIVE VOLUMES               L**3   RATES FOR THIS TIME STEP           L**3/T
   ------------------                      ------------------------

                                     IN                                         IN
                                     --                                         --
        PRECIPITATION =        5170466.84          PRECIPITATION =          41505.35
           STREAMFLOW =                               STREAMFLOW =                  
     GW BOUNDARY FLOW =                         GW BOUNDARY FLOW =                  


                                    OUT                                        OUT
                                    ---                                        ---
   EVAPOTRANSPIRATION =        2883130.04     EVAPOTRANSPIRATION =          35211.68
           STREAMFLOW =        1647944.89             STREAMFLOW =          20000.45
     GW BOUNDARY FLOW =          81224.13       GW BOUNDARY FLOW =            726.36

   INFLOWS - OUTFLOWS =         558167.78     INFLOWS - OUTFLOWS =         -14433.14
             --------                                   --------

 TOTAL STORAGE CHANGE =         560962.81         STORAGE CHANGE =         -14419.09
       --------------                             --------------
         LAND SURFACE =         436285.42           LAND SURFACE =           4326.68
            SOIL ZONE =        2147856.11              SOIL ZONE =          -9997.86
     UNSATURATED ZONE =       -1518146.08       UNSATURATED ZONE =          -1867.17
       SATURATED ZONE =        -505032.65         SATURATED ZONE =          -6880.73

 OVERALL BUDGET ERROR =          -2795.03           BUDGET ERROR =            -14.05


  PERCENT DISCREPANCY =             -0.05    PERCENT DISCREPANCY =             -0.03



1
 SUMMARY VOLUMETRIC BUDGET FOR GSFLOW 
 DATE: 01 27 1981              CUMULATIVE TIME STEP:     119
 MODFLOW STRESS PERIOD      2     CURRENT TIME STEP:     119     ITERATIONS:       6

 -----------------------------------------------------------------------------------

   CUMULATIVE VOLUMES               L**3   RATES FOR THIS TIME STEP           L**3/T
   ------------------                      ------------------------

                                     IN                                         IN
                                     --                                         --
        PRECIPITATION =        8646540.08          PRECIPITATION =        2936503.63
           STREAMFLOW =                               STREAMFLOW =                  
     GW BOUNDARY FLOW =                         GW BOUNDARY FLOW =                  


                                    OUT                                        OUT
                                    ---                                        ---
   EVAPOTRANSPIRATION =        3117698.95     EVAPOTRANSPIRATION =          13120.97
           STREAMFLOW =        1792686.25             STREAMFLOW =          18591.47
     GW BOUNDARY FLOW =          86308.40       GW BOUNDARY FLOW =            726.09

   INFLOWS - OUTFLOWS =        3649846.46     INFLOWS - OUTFLOWS =        2904065.11
             --------                                   --------

 TOTAL STORAGE CHANGE =        3652714.90         STORAGE CHANGE =        2904075.48
       --------------                             --------------
         LAND SURFACE =        3540180.85           LAND SURFACE =        2923352.24
            SOIL ZONE =        2170668.63              SOIL ZONE =          -7540.01
     UNSATURATED ZONE =       -1506293.10       UNSATURATED ZONE =          -4601.36
       SATURATED ZONE =        -551841.48         SATURATED ZONE =          -7135.40

 OVERALL BUDGET ERROR =          -2868.43           BUDGET ERROR =            -10.37


  PERCENT DISCREPANCY =             -0.03    PERCENT DISCREPANCY =             -0.00



1
 SUMMARY VOLUMETRIC BUDGET FOR GSFLOW 
 DATE: 02 03 1981              CUMULATIVE TIME STEP:     126
 MODFLOW STRESS PERIOD      2     CURRENT TIME STEP:     126     ITERATIONS:       7

 -----------------------------------------------------------------------------------

   CUMULATIVE VOLUMES               L**3   RATES FOR THIS TIME STEP           L**3/T
   ------------------                      ------------------------

                                     IN                                         IN
                                     --                                         --
        PRECIPITATION =        1.1739D+07          PRECIPITATION =                  
           STREAMFLOW =                               STREAMFLOW =                  
     GW BOUNDARY FLOW =                         GW BOUNDARY FLOW =                  


                                    OUT                                        OUT
                                    ---                                        ---
   EVAPOTRANSPIRATION =        3154212.00     EVAPOTRANSPIRATION =           6975.48
           STREAMFLOW =        1918795.37             STREAMFLOW =          17910.43
     GW BOUNDARY FLOW =          91389.73       GW BOUNDARY FLOW =            725.83

   INFLOWS - OUTFLOWS =        6574291.67     INFLOWS - OUTFLOWS =         -25611.75
             --------                                   --------

 TOTAL STORAGE CHANGE =        6577235.13         STORAGE CHANGE =         -25603.14
       --------------                             --------------
         LAND SURFACE =        6595816.50           LAND SURFACE =          -6975.48
            SOIL ZONE =        2159922.62              SOIL ZONE =            514.77
     UNSATURATED ZONE =       -1573058.54       UNSATURATED ZONE =         -11222.90
       SATURATED ZONE =        -605445.46         SATURATED ZONE =          -7919.53

 OVERALL BUDGET ERROR =          -2943.46           BUDGET ERROR =             -8.61


  PERCENT DISCREPANCY =             -0.03    PERCENT DISCREPANCY =             -0.03



1
 SUMMARY VOLUMETRIC BUDGET FOR GSFLOW 
 DATE: 02 10 1981              CUMULATIVE TIME STEP:     133
 MODFLOW STRESS PERIOD      2     CURRENT TIME STEP:     133     ITERATIONS:       5

 -----------------------------------------------------------------------------------

   CUMULATIVE VOLUMES               L**3   RATES FOR THIS TIME STEP           L**3/T
   ------------------                      ------------------------

                                     IN                                         IN
                                     --                                         --
        PRECIPITATION =        1.1838D+07          PRECIPITATION =                  
           STREAMFLOW =                               STREAMFLOW =                  
     GW BOUNDARY FLOW =                         GW BOUNDARY FLOW =                  


                                    OUT                                        OUT
                                    ---                                        ---
   EVAPOTRANSPIRATION =        3279613.06     EVAPOTRANSPIRATION =          32880.06
           STREAMFLOW =        2044399.27             STREAMFLOW =          17968.67
     GW BOUNDARY FLOW =          96470.60       GW BOUNDARY FLOW =            725.83

   INFLOWS - OUTFLOWS =        6417770.34     INFLOWS - OUTFLOWS =         -51574.56
             --------                                   --------

 TOTAL STORAGE CHANGE =        6420811.21         STORAGE CHANGE =         -51555.96
       --------------                             --------------
         LAND SURFACE =        6569979.95           LAND SURFACE =         -32880.06
            SOIL ZONE =        2164327.97              SOIL ZONE =            613.25
     UNSATURATED ZONE =       -1649480.69       UNSATURATED ZONE =         -10563.48
       SATURATED ZONE =        -664016.01         SATURATED ZONE =          -8725.67

 OVERALL BUDGET ERROR =          -3040.88           BUDGET ERROR =            -18.60


  PERCENT DISCREPANCY =             -0.03    PERCENT DISCREPANCY =             -0.04



1
 SUMMARY VOLUMETRIC BUDGET FOR GSFLOW 
 DATE: 02 17 1981              CUMULATIVE TIME STEP:     140
 MODFLOW STRESS PERIOD      2     CURRENT TIME STEP:     140     ITERATIONS:      10

 -----------------------------------------------------------------------------------

   CUMULATIVE VOLUMES               L**3   RATES FOR THIS TIME STEP           L**3/T
   ------------------                      ------------------------

                                     IN                                         IN
                                     --                                         --
        PRECIPITATION =        1.2765D+07          PRECIPITATION =          68929.28
           STREAMFLOW =                               STREAMFLOW =                  
     GW BOUNDARY FLOW =                         GW BOUNDARY FLOW =                  


                                    OUT                                        OUT
                                    ---                                        ---
   EVAPOTRANSPIRATION =        3617710.86     EVAPOTRANSPIRATION =          68607.56
           STREAMFLOW =        2584025.73             STREAMFLOW =         124495.18
     GW BOUNDARY FLOW =         101579.96       GW BOUNDARY FLOW =            734.46

   INFLOWS - OUTFLOWS =        6461652.56     INFLOWS - OUTFLOWS =        -124907.92
             --------                                   --------

 TOTAL STORAGE CHANGE =        6464799.75         STORAGE CHANGE =        -124894.95
       --------------                             --------------
         LAND SURFACE =        5590061.11           LAND SURFACE =        -278671.93
            SOIL ZONE =        2956997.88              SOIL ZONE =          71822.88
     UNSATURATED ZONE =       -1400833.53       UNSATURATED ZONE =          79568.87
       SATURATED ZONE =        -681425.71         SATURATED ZONE =           2385.24

 OVERALL BUDGET ERROR =          -3147.19           BUDGET ERROR =            -12.97


  PERCENT DISCREPANCY =             -0.02    PERCENT DISCREPANCY =             -0.01



1
 SUMMARY VOLUMETRIC BUDGET FOR GSFLOW 
 DATE: 02 24 1981              CUMULATIVE TIME STEP:     147
 MODFLOW STRESS PERIOD      2     CURRENT TIME STEP:     147     ITERATIONS:       9

 -----------------------------------------------------------------------------------

   CUMULATIVE VOLUMES               L**3   RATES FOR THIS TIME STEP           L**3/T
   ------------------                      ------------------------

                                     IN                                         IN
                                     --                                         --
        PRECIPITATION =        1.3179D+07          PRECIPITATION =         344646.37
           STREAMFLOW =                               STREAMFLOW =                  
     GW BOUNDARY FLOW =                         GW BOUNDARY FLOW =                  


                                    OUT                                        OUT
                                    ---                                        ---
   EVAPOTRANSPIRATION =        3959032.45     EVAPOTRANSPIRATION =          18832.76
           STREAMFLOW =        3139312.65             STREAMFLOW =          51790.34
     GW BOUNDARY FLOW =         106714.55       GW BOUNDARY FLOW =            732.09

   INFLOWS - OUTFLOWS =        5973485.10     INFLOWS - OUTFLOWS =         273291.18
             --------                                   --------

 TOTAL STORAGE CHANGE =        5976662.77         STORAGE CHANGE =         273292.62
       --------------                             --------------
         LAND SURFACE =        4984244.21           LAND SURFACE =         286368.61
            SOIL ZONE =        2695048.04              SOIL ZONE =         -43260.48
     UNSATURATED ZONE =       -1046008.44       UNSATURATED ZONE =          27600.67
       SATURATED ZONE =        -656621.05         SATURATED ZONE =           2583.83

 OVERALL BUDGET ERROR =          -3177.68           BUDGET ERROR =             -1.44


  PERCENT DISCREPANCY =             -0.02    PERCENT DISCREPANCY =             -0.00



1
 SUMMARY VOLUMETRIC BUDGET FOR GSFLOW 
 DATE: 03 03 1981              CUMULATIVE TIME STEP:     154
 MODFLOW STRESS PERIOD      2     CURRENT TIME STEP:     154     ITERATIONS:       8

 -----------------------------------------------------------------------------------

   CUMULATIVE VOLUMES               L**3   RATES FOR THIS TIME STEP           L**3/T
   ------------------                      ------------------------

                                     IN                                         IN
                                     --                                         --
        PRECIPITATION =        1.3447D+07          PRECIPITATION =                  
           STREAMFLOW =                               STREAMFLOW =                  
     GW BOUNDARY FLOW =                         GW BOUNDARY FLOW =                  


                                    OUT                                        OUT
                                    ---                                        ---
   EVAPOTRANSPIRATION =        4119715.18     EVAPOTRANSPIRATION =          45353.75
           STREAMFLOW =        3362481.52             STREAMFLOW =          27721.61
     GW BOUNDARY FLOW =         111822.31       GW BOUNDARY FLOW =            728.46

   INFLOWS - OUTFLOWS =        5852584.03     INFLOWS - OUTFLOWS =         -73803.82
             --------                                   --------

 TOTAL STORAGE CHANGE =        5855721.53         STORAGE CHANGE =         -73808.67
       --------------                             --------------
         LAND SURFACE =        5068137.31           LAND SURFACE =         -66041.98
            SOIL ZONE =        2487616.71              SOIL ZONE =           2891.77
     UNSATURATED ZONE =       -1039766.56       UNSATURATED ZONE =          -8752.15
       SATURATED ZONE =        -660265.92         SATURATED ZONE =          -1906.32

 OVERALL BUDGET ERROR =          -3137.50           BUDGET ERROR =              4.85


  PERCENT DISCREPANCY =             -0.02    PERCENT DISCREPANCY =              0.01



1
 SUMMARY VOLUMETRIC BUDGET FOR GSFLOW 
 DATE: 03 10 1981              CUMULATIVE TIME STEP:     161
 MODFLOW STRESS PERIOD      2     CURRENT TIME STEP:     161     ITERATIONS:       7

 -----------------------------------------------------------------------------------

   CUMULATIVE VOLUMES               L**3   RATES FOR THIS TIME STEP           L**3/T
   ------------------                      ------------------------

                                     IN                                         IN
                                     --                                         --
        PRECIPITATION =        1.3493D+07          PRECIPITATION =                  
           STREAMFLOW =                               STREAMFLOW =                  
     GW BOUNDARY FLOW =                         GW BOUNDARY FLOW =                  


                                    OUT                                        OUT
                                    ---                                        ---
   EVAPOTRANSPIRATION =        4465504.76     EVAPOTRANSPIRATION =          72811.00
           STREAMFLOW =        3597815.36             STREAMFLOW =          43442.92
     GW BOUNDARY FLOW =         116921.24       GW BOUNDARY FLOW =            729.25

   INFLOWS - OUTFLOWS =        5312699.80     INFLOWS - OUTFLOWS =        -116983.16
             --------                                   --------

 TOTAL STORAGE CHANGE =        5315823.33         STORAGE CHANGE =        -116984.42
       --------------                             --------------
         LAND SURFACE =        4391652.97           LAND SURFACE =        -169089.79
            SOIL ZONE =        2600921.66              SOIL ZONE =          28926.51
     UNSATURATED ZONE =       -1005126.90       UNSATURATED ZONE =          23705.59
       SATURATED ZONE =        -671624.40         SATURATED ZONE =           -526.74

 OVERALL BUDGET ERROR =          -3123.53           BUDGET ERROR =              1.26


  PERCENT DISCREPANCY =             -0.02    PERCENT DISCREPANCY =              0.00



1
 SUMMARY VOLUMETRIC BUDGET FOR GSFLOW 
 DATE: 03 17 1981              CUMULATIVE TIME STEP:     168
 MODFLOW STRESS PERIOD      2     CURRENT TIME STEP:     168     ITERATIONS:       6

 -----------------------------------------------------------------------------------

   CUMULATIVE VOLUMES               L**3   RATES FOR THIS TIME STEP           L**3/T
   ------------------                      ------------------------

                                     IN                                         IN
                                     --                                         --
        PRECIPITATION =        1.3744D+07          PRECIPITATION =                  
           STREAMFLOW =                               STREAMFLOW =                  
     GW BOUNDARY FLOW =                         GW BOUNDARY FLOW =                  


                                    OUT                                        OUT
                                    ---                                        ---
   EVAPOTRANSPIRATION =        4833914.51     EVAPOTRANSPIRATION =          40234.36
           STREAMFLOW =        3824006.49             STREAMFLOW =          24095.06
     GW BOUNDARY FLOW =         122022.13       GW BOUNDARY FLOW =            727.93

   INFLOWS - OUTFLOWS =        4964547.75     INFLOWS - OUTFLOWS =         -65057.35
             --------                                   --------

 TOTAL STORAGE CHANGE =        4967649.35         STORAGE CHANGE =         -65054.74
       --------------                             --------------
         LAND SURFACE =        4202420.68           LAND SURFACE =         -39897.13
            SOIL ZONE =        2436116.77              SOIL ZONE =          -5350.71
     UNSATURATED ZONE =        -981556.37       UNSATURATED ZONE =         -15582.98
       SATURATED ZONE =        -689331.73         SATURATED ZONE =          -4223.92

 OVERALL BUDGET ERROR =          -3101.60           BUDGET ERROR =             -2.61


  PERCENT DISCREPANCY =             -0.02    PERCENT DISCREPANCY =             -0.00



1
 SUMMARY VOLUMETRIC BUDGET FOR GSFLOW 
 DATE: 03 24 1981              CUMULATIVE TIME STEP:     175
 MODFLOW STRESS PERIOD      2     CURRENT TIME STEP:     175     ITERATIONS:       6

 -----------------------------------------------------------------------------------

   CUMULATIVE VOLUMES               L**3   RATES FOR THIS TIME STEP           L**3/T
   ------------------                      ------------------------

                                     IN                                         IN
                                     --                                         --
        PRECIPITATION =        1.4367D+07          PRECIPITATION =                  
           STREAMFLOW =                               STREAMFLOW =                  
     GW BOUNDARY FLOW =                         GW BOUNDARY FLOW =                  


                                    OUT                                        OUT
                                    ---                                        ---
   EVAPOTRANSPIRATION =        5189691.85     EVAPOTRANSPIRATION =          87428.11
           STREAMFLOW =        3999646.55             STREAMFLOW =          26770.18
     GW BOUNDARY FLOW =         127114.24       GW BOUNDARY FLOW =            727.40

   INFLOWS - OUTFLOWS =        5050292.87     INFLOWS - OUTFLOWS =        -114925.69
             --------                                   --------

 TOTAL STORAGE CHANGE =        5053430.19         STORAGE CHANGE =        -114922.52
       --------------                             --------------
         LAND SURFACE =        4477696.12           LAND SURFACE =         -65035.10
            SOIL ZONE =        2348904.91              SOIL ZONE =         -41071.91
     UNSATURATED ZONE =       -1049026.46       UNSATURATED ZONE =          -3546.04
       SATURATED ZONE =        -724144.39         SATURATED ZONE =          -5269.47

 OVERALL BUDGET ERROR =          -3137.31           BUDGET ERROR =             -3.17


  PERCENT DISCREPANCY =             -0.02    PERCENT DISCREPANCY =             -0.00



1
 SUMMARY VOLUMETRIC BUDGET FOR GSFLOW 
 DATE: 03 31 1981              CUMULATIVE TIME STEP:     182
 MODFLOW STRESS PERIOD      2     CURRENT TIME STEP:     182     ITERATIONS:       8

 -----------------------------------------------------------------------------------

   CUMULATIVE VOLUMES               L**3   RATES FOR THIS TIME STEP           L**3/T
   ------------------                      ------------------------

                                     IN                                         IN
                                     --                                         --
        PRECIPITATION =        1.5777D+07          PRECIPITATION =                  
           STREAMFLOW =                               STREAMFLOW =                  
     GW BOUNDARY FLOW =                         GW BOUNDARY FLOW =                  


                                    OUT                                        OUT
                                    ---                                        ---
   EVAPOTRANSPIRATION =        5619629.24     EVAPOTRANSPIRATION =          54090.27
           STREAMFLOW =        4506579.77             STREAMFLOW =          36966.64
     GW BOUNDARY FLOW =         132234.57       GW BOUNDARY FLOW =            730.25

   INFLOWS - OUTFLOWS =        5518304.41     INFLOWS - OUTFLOWS =         -91787.15
             --------                                   --------

 TOTAL STORAGE CHANGE =        5521431.43         STORAGE CHANGE =         -91796.29
       --------------                             --------------
         LAND SURFACE =        4494242.72           LAND SURFACE =         -55488.75
            SOIL ZONE =        2545327.20              SOIL ZONE =         -41656.52
     UNSATURATED ZONE =        -800656.52       UNSATURATED ZONE =           6337.73
       SATURATED ZONE =        -717481.97         SATURATED ZONE =           -988.75

 OVERALL BUDGET ERROR =          -3127.02           BUDGET ERROR =              9.14


  PERCENT DISCREPANCY =             -0.02    PERCENT DISCREPANCY =              0.01



1
 SUMMARY VOLUMETRIC BUDGET FOR GSFLOW 
 DATE: 04 07 1981              CUMULATIVE TIME STEP:     189
 MODFLOW STRESS PERIOD      2     CURRENT TIME STEP:     189     ITERATIONS:       7

 -----------------------------------------------------------------------------------

   CUMULATIVE VOLUMES               L**3   RATES FOR THIS TIME STEP           L**3/T
   ------------------                      ------------------------

                                     IN                                         IN
                                     --                                         --
        PRECIPITATION =        1.6121D+07          PRECIPITATION =                  
           STREAMFLOW =                               STREAMFLOW =                  
     GW BOUNDARY FLOW =                         GW BOUNDARY FLOW =                  


                                    OUT                                        OUT
                                    ---                                        ---
   EVAPOTRANSPIRATION =        6245695.48     EVAPOTRANSPIRATION =         103845.38
           STREAMFLOW =        4823673.55             STREAMFLOW =          43223.24
     GW BOUNDARY FLOW =         137345.99       GW BOUNDARY FLOW =            730.43

   INFLOWS - OUTFLOWS =        4914752.59     INFLOWS - OUTFLOWS =        -147799.05
             --------                                   --------

 TOTAL STORAGE CHANGE =        4917838.26         STORAGE CHANGE =        -147805.49
       --------------                             --------------
         LAND SURFACE =        3870170.36           LAND SURFACE =        -138668.80
            SOIL ZONE =        2476741.40              SOIL ZONE =         -20332.19
     UNSATURATED ZONE =        -713793.81       UNSATURATED ZONE =          11414.20
       SATURATED ZONE =        -715279.69         SATURATED ZONE =           -218.70

 OVERALL BUDGET ERROR =          -3085.68           BUDGET ERROR =              6.44


  PERCENT DISCREPANCY =             -0.02    PERCENT DISCREPANCY =              0.00



1
 SUMMARY VOLUMETRIC BUDGET FOR GSFLOW 
 DATE: 04 14 1981              CUMULATIVE TIME STEP:     196
 MODFLOW STRESS PERIOD      2     CURRENT TIME STEP:     196     ITERATIONS:       9

 -----------------------------------------------------------------------------------

   CUMULATIVE VOLUMES               L**3   RATES FOR THIS TIME STEP           L**3/T
   ------------------                      ------------------------

                                     IN                                         IN
                                     --                                         --
        PRECIPITATION =        1.6121D+07          PRECIPITATION =                  
           STREAMFLOW =                               STREAMFLOW =                  
     GW BOUNDARY FLOW =                         GW BOUNDARY FLOW =                  


                                    OUT                                        OUT
                                    ---                                        ---
   EVAPOTRANSPIRATION =        7156385.00     EVAPOTRANSPIRATION =         191911.71
           STREAMFLOW =        5149358.98             STREAMFLOW =          55195.45
     GW BOUNDARY FLOW =         142457.94       GW BOUNDARY FLOW =            730.39

   INFLOWS - OUTFLOWS =        3673265.68     INFLOWS - OUTFLOWS =        -247837.55
             --------                                   --------

 TOTAL STORAGE CHANGE =        3676343.84         STORAGE CHANGE =        -247837.12
       --------------                             --------------
         LAND SURFACE =        2621455.97           LAND SURFACE =        -253007.68
            SOIL ZONE =        2385190.78              SOIL ZONE =         -16845.04
     UNSATURATED ZONE =        -619973.08       UNSATURATED ZONE =          20167.03
       SATURATED ZONE =        -710329.84         SATURATED ZONE =           1848.57

 OVERALL BUDGET ERROR =          -3078.16           BUDGET ERROR =             -0.42


  PERCENT DISCREPANCY =             -0.02    PERCENT DISCREPANCY =             -0.00



1
 SUMMARY VOLUMETRIC BUDGET FOR GSFLOW 
 DATE: 04 21 1981              CUMULATIVE TIME STEP:     203
 MODFLOW STRESS PERIOD      2     CURRENT TIME STEP:     203     ITERATIONS:       9

 -----------------------------------------------------------------------------------

   CUMULATIVE VOLUMES               L**3   RATES FOR THIS TIME STEP           L**3/T
   ------------------                      ------------------------

                                     IN                                         IN
                                     --                                         --
        PRECIPITATION =        1.6310D+07          PRECIPITATION =                  
           STREAMFLOW =                               STREAMFLOW =                  
     GW BOUNDARY FLOW =                         GW BOUNDARY FLOW =                  


                                    OUT                                        OUT
                                    ---                                        ---
   EVAPOTRANSPIRATION =        8226327.51     EVAPOTRANSPIRATION =         151397.46
           STREAMFLOW =        5486896.08             STREAMFLOW =          45563.12
     GW BOUNDARY FLOW =         147565.08       GW BOUNDARY FLOW =            729.06

   INFLOWS - OUTFLOWS =        2449453.96     INFLOWS - OUTFLOWS =        -197689.64
             --------                                   --------

 TOTAL STORAGE CHANGE =        2452524.26         STORAGE CHANGE =        -197693.83
       --------------                             --------------
         LAND SURFACE =        1440926.25           LAND SURFACE =        -121359.42
            SOIL ZONE =        2205558.93              SOIL ZONE =         -96273.96
     UNSATURATED ZONE =        -499093.75       UNSATURATED ZONE =          17248.32
       SATURATED ZONE =        -694867.17         SATURATED ZONE =           2691.24

 OVERALL BUDGET ERROR =          -3070.29           BUDGET ERROR =              4.19


  PERCENT DISCREPANCY =             -0.02    PERCENT DISCREPANCY =              0.00



1
 SUMMARY VOLUMETRIC BUDGET FOR GSFLOW 
 DATE: 04 28 1981              CUMULATIVE TIME STEP:     210
 MODFLOW STRESS PERIOD      2     CURRENT TIME STEP:     210     ITERATIONS:       9

 -----------------------------------------------------------------------------------

   CUMULATIVE VOLUMES               L**3   RATES FOR THIS TIME STEP           L**3/T
   ------------------                      ------------------------

                                     IN                                         IN
                                     --                                         --
        PRECIPITATION =        1.6515D+07          PRECIPITATION =                  
           STREAMFLOW =                               STREAMFLOW =                  
     GW BOUNDARY FLOW =                         GW BOUNDARY FLOW =                  


                                    OUT                                        OUT
                                    ---                                        ---
   EVAPOTRANSPIRATION =        9466053.62     EVAPOTRANSPIRATION =         200832.67
           STREAMFLOW =        5698713.02             STREAMFLOW =          24694.79
     GW BOUNDARY FLOW =         152657.19       GW BOUNDARY FLOW =            726.33

   INFLOWS - OUTFLOWS =        1198009.06     INFLOWS - OUTFLOWS =        -226253.79
             --------                                   --------

 TOTAL STORAGE CHANGE =        1201055.67         STORAGE CHANGE =        -226255.41
       --------------                             --------------
         LAND SURFACE =         691530.95           LAND SURFACE =         -83509.90
            SOIL ZONE =        1694257.09              SOIL ZONE =        -138855.43
     UNSATURATED ZONE =        -496356.37       UNSATURATED ZONE =          -3829.28
       SATURATED ZONE =        -688376.01         SATURATED ZONE =            -60.80

 OVERALL BUDGET ERROR =          -3046.61           BUDGET ERROR =              1.62


  PERCENT DISCREPANCY =             -0.02    PERCENT DISCREPANCY =              0.00



1
 SUMMARY VOLUMETRIC BUDGET FOR GSFLOW 
 DATE: 05 05 1981              CUMULATIVE TIME STEP:     217
 MODFLOW STRESS PERIOD      2     CURRENT TIME STEP:     217     ITERATIONS:       9

 -----------------------------------------------------------------------------------

   CUMULATIVE VOLUMES               L**3   RATES FOR THIS TIME STEP           L**3/T
   ------------------                      ------------------------

                                     IN                                         IN
                                     --                                         --
        PRECIPITATION =        1.6515D+07          PRECIPITATION =                  
           STREAMFLOW =                               STREAMFLOW =                  
     GW BOUNDARY FLOW =                         GW BOUNDARY FLOW =                  


                                    OUT                                        OUT
                                    ---                                        ---
   EVAPOTRANSPIRATION =        1.0319D+07     EVAPOTRANSPIRATION =          47788.33
           STREAMFLOW =        5804600.96             STREAMFLOW =          10815.13
     GW BOUNDARY FLOW =         157732.73       GW BOUNDARY FLOW =            724.19

   INFLOWS - OUTFLOWS =         234511.72     INFLOWS - OUTFLOWS =         -59327.65
             --------                                   --------

 TOTAL STORAGE CHANGE =         237593.22         STORAGE CHANGE =         -59318.41
       --------------                             --------------
         LAND SURFACE =         347350.76           LAND SURFACE =         -17502.06
            SOIL ZONE =        1184772.20              SOIL ZONE =         -22937.72
     UNSATURATED ZONE =        -588800.43       UNSATURATED ZONE =         -15084.00
       SATURATED ZONE =        -705729.31         SATURATED ZONE =          -3794.63

 OVERALL BUDGET ERROR =          -3081.50           BUDGET ERROR =             -9.24


  PERCENT DISCREPANCY =             -0.02    PERCENT DISCREPANCY =             -0.02



1
 SUMMARY VOLUMETRIC BUDGET FOR GSFLOW 
 DATE: 05 12 1981              CUMULATIVE TIME STEP:     224
 MODFLOW STRESS PERIOD      2     CURRENT TIME STEP:     224     ITERATIONS:       9

 -----------------------------------------------------------------------------------

   CUMULATIVE VOLUMES               L**3   RATES FOR THIS TIME STEP           L**3/T
   ------------------                      ------------------------

                                     IN                                         IN
                                     --                                         --
        PRECIPITATION =        1.6515D+07          PRECIPITATION =                  
           STREAMFLOW =                               STREAMFLOW =                  
     GW BOUNDARY FLOW =                         GW BOUNDARY FLOW =                  


                                    OUT                                        OUT
                                    ---                                        ---
   EVAPOTRANSPIRATION =        1.0810D+07     EVAPOTRANSPIRATION =          91189.79
           STREAMFLOW =        5875353.00             STREAMFLOW =          10412.57
     GW BOUNDARY FLOW =         162798.34       GW BOUNDARY FLOW =            723.47

   INFLOWS - OUTFLOWS =        -332369.47     INFLOWS - OUTFLOWS =        -102325.83
             --------                                   --------

 TOTAL STORAGE CHANGE =        -329245.73         STORAGE CHANGE =        -102320.16
       --------------                             --------------
         LAND SURFACE =         198678.97           LAND SURFACE =         -25500.84
            SOIL ZONE =         901641.15              SOIL ZONE =         -57954.86
     UNSATURATED ZONE =        -690195.06       UNSATURATED ZONE =         -12944.50
       SATURATED ZONE =        -739370.79         SATURATED ZONE =          -5919.96

 OVERALL BUDGET ERROR =          -3123.73           BUDGET ERROR =             -5.67


  PERCENT DISCREPANCY =             -0.02    PERCENT DISCREPANCY =             -0.01



1
 SUMMARY VOLUMETRIC BUDGET FOR GSFLOW 
 DATE: 05 19 1981              CUMULATIVE TIME STEP:     231
 MODFLOW STRESS PERIOD      2     CURRENT TIME STEP:     231     ITERATIONS:       8

 -----------------------------------------------------------------------------------

   CUMULATIVE VOLUMES               L**3   RATES FOR THIS TIME STEP           L**3/T
   ------------------                      ------------------------

                                     IN                                         IN
                                     --                                         --
        PRECIPITATION =        1.7837D+07          PRECIPITATION =         169045.43
           STREAMFLOW =                               STREAMFLOW =                  
     GW BOUNDARY FLOW =                         GW BOUNDARY FLOW =                  


                                    OUT                                        OUT
                                    ---                                        ---
   EVAPOTRANSPIRATION =        1.1153D+07     EVAPOTRANSPIRATION =          32129.65
           STREAMFLOW =        6006140.24             STREAMFLOW =          27300.71
     GW BOUNDARY FLOW =         167865.65       GW BOUNDARY FLOW =            725.35

   INFLOWS - OUTFLOWS =         509909.91     INFLOWS - OUTFLOWS =         108889.72
             --------                                   --------

 TOTAL STORAGE CHANGE =         513073.51         STORAGE CHANGE =         108893.59
       --------------                             --------------
         LAND SURFACE =         167097.84           LAND SURFACE =           4534.24
            SOIL ZONE =        1882332.07              SOIL ZONE =         110134.24
     UNSATURATED ZONE =        -756917.84       UNSATURATED ZONE =             -9.54
       SATURATED ZONE =        -779438.56         SATURATED ZONE =          -5765.35

 OVERALL BUDGET ERROR =          -3163.61           BUDGET ERROR =             -3.87


  PERCENT DISCREPANCY =             -0.02    PERCENT DISCREPANCY =             -0.00



1
 SUMMARY VOLUMETRIC BUDGET FOR GSFLOW 
 DATE: 05 26 1981              CUMULATIVE TIME STEP:     238
 MODFLOW STRESS PERIOD      2     CURRENT TIME STEP:     238     ITERATIONS:       8

 -----------------------------------------------------------------------------------

   CUMULATIVE VOLUMES               L**3   RATES FOR THIS TIME STEP           L**3/T
   ------------------                      ------------------------

                                     IN                                         IN
                                     --                                         --
        PRECIPITATION =        1.8252D+07          PRECIPITATION =         284303.67
           STREAMFLOW =                               STREAMFLOW =                  
     GW BOUNDARY FLOW =                         GW BOUNDARY FLOW =                  


                                    OUT                                        OUT
                                    ---                                        ---
   EVAPOTRANSPIRATION =        1.1982D+07     EVAPOTRANSPIRATION =         133987.99
           STREAMFLOW =        6119537.34             STREAMFLOW =          19483.64
     GW BOUNDARY FLOW =         172935.82       GW BOUNDARY FLOW =            724.02

   INFLOWS - OUTFLOWS =         -22012.23     INFLOWS - OUTFLOWS =         130108.02
             --------                                   --------

 TOTAL STORAGE CHANGE =         -18814.78         STORAGE CHANGE =         130114.16
       --------------                             --------------
         LAND SURFACE =          96880.50           LAND SURFACE =          -7049.94
            SOIL ZONE =        1524886.16              SOIL ZONE =         154533.09
     UNSATURATED ZONE =        -813125.60       UNSATURATED ZONE =         -10457.29
       SATURATED ZONE =        -827455.83         SATURATED ZONE =          -6911.70

 OVERALL BUDGET ERROR =          -3197.45           BUDGET ERROR =             -6.14


  PERCENT DISCREPANCY =             -0.02    PERCENT DISCREPANCY =             -0.00



1
 SUMMARY VOLUMETRIC BUDGET FOR GSFLOW 
 DATE: 06 02 1981              CUMULATIVE TIME STEP:     245
 MODFLOW STRESS PERIOD      2     CURRENT TIME STEP:     245     ITERATIONS:      10

 -----------------------------------------------------------------------------------

   CUMULATIVE VOLUMES               L**3   RATES FOR THIS TIME STEP           L**3/T
   ------------------                      ------------------------

                                     IN                                         IN
                                     --                                         --
        PRECIPITATION =        1.8318D+07          PRECIPITATION =          50869.96
           STREAMFLOW =                               STREAMFLOW =                  
     GW BOUNDARY FLOW =                         GW BOUNDARY FLOW =                  


                                    OUT                                        OUT
                                    ---                                        ---
   EVAPOTRANSPIRATION =        1.2778D+07     EVAPOTRANSPIRATION =          69285.68
           STREAMFLOW =        6190223.28             STREAMFLOW =           7757.24
     GW BOUNDARY FLOW =         177998.37       GW BOUNDARY FLOW =            722.65

   INFLOWS - OUTFLOWS =        -827753.77     INFLOWS - OUTFLOWS =         -26895.61
             --------                                   --------

 TOTAL STORAGE CHANGE =        -824505.26         STORAGE CHANGE =         -26888.48
       --------------                             --------------
         LAND SURFACE =          61812.20           LAND SURFACE =          30830.75
            SOIL ZONE =         898899.56              SOIL ZONE =         -35652.59
     UNSATURATED ZONE =        -900028.73       UNSATURATED ZONE =         -13584.81
       SATURATED ZONE =        -885188.29         SATURATED ZONE =          -8481.82

 OVERALL BUDGET ERROR =          -3248.52           BUDGET ERROR =             -7.14


  PERCENT DISCREPANCY =             -0.02    PERCENT DISCREPANCY =             -0.01



1
 SUMMARY VOLUMETRIC BUDGET FOR GSFLOW 
 DATE: 06 09 1981              CUMULATIVE TIME STEP:     252
 MODFLOW STRESS PERIOD      2     CURRENT TIME STEP:     252     ITERATIONS:       9

 -----------------------------------------------------------------------------------

   CUMULATIVE VOLUMES               L**3   RATES FOR THIS TIME STEP           L**3/T
   ------------------                      ------------------------

                                     IN                                         IN
                                     --                                         --
        PRECIPITATION =        1.8318D+07          PRECIPITATION =                  
           STREAMFLOW =                               STREAMFLOW =                  
     GW BOUNDARY FLOW =                         GW BOUNDARY FLOW =                  


                                    OUT                                        OUT
                                    ---                                        ---
   EVAPOTRANSPIRATION =        1.3270D+07     EVAPOTRANSPIRATION =          51333.20
           STREAMFLOW =        6237964.60             STREAMFLOW =           6426.91
     GW BOUNDARY FLOW =         183054.27       GW BOUNDARY FLOW =            722.07

   INFLOWS - OUTFLOWS =       -1372670.51     INFLOWS - OUTFLOWS =         -58482.18
             --------                                   --------

 TOTAL STORAGE CHANGE =       -1369371.77         STORAGE CHANGE =         -58475.59
       --------------                             --------------
         LAND SURFACE =           8252.08           LAND SURFACE =          -1595.17
            SOIL ZONE =         563086.22              SOIL ZONE =         -34630.66
     UNSATURATED ZONE =        -994218.63       UNSATURATED ZONE =         -13447.22
       SATURATED ZONE =        -946491.44         SATURATED ZONE =          -8802.55

 OVERALL BUDGET ERROR =          -3298.75           BUDGET ERROR =             -6.59


  PERCENT DISCREPANCY =             -0.02    PERCENT DISCREPANCY =             -0.01



1
 SUMMARY VOLUMETRIC BUDGET FOR GSFLOW 
 DATE: 06 16 1981              CUMULATIVE TIME STEP:     259
 MODFLOW STRESS PERIOD      2     CURRENT TIME STEP:     259     ITERATIONS:      10

 -----------------------------------------------------------------------------------

   CUMULATIVE VOLUMES               L**3   RATES FOR THIS TIME STEP           L**3/T
   ------------------                      ------------------------

                                     IN                                         IN
                                     --                                         --
        PRECIPITATION =        1.8318D+07          PRECIPITATION =                  
           STREAMFLOW =                               STREAMFLOW =                  
     GW BOUNDARY FLOW =                         GW BOUNDARY FLOW =                  


                                    OUT                                        OUT
                                    ---                                        ---
   EVAPOTRANSPIRATION =        1.3461D+07     EVAPOTRANSPIRATION =          44886.59
           STREAMFLOW =        6281659.14             STREAMFLOW =           6167.72
     GW BOUNDARY FLOW =         188107.75       GW BOUNDARY FLOW =            721.84

   INFLOWS - OUTFLOWS =       -1612313.57     INFLOWS - OUTFLOWS =         -51776.15
             --------                                   --------

 TOTAL STORAGE CHANGE =       -1608958.25         STORAGE CHANGE =         -51768.08
       --------------                             --------------
         LAND SURFACE =           3425.60           LAND SURFACE =           -943.52
            SOIL ZONE =         482766.50              SOIL ZONE =         -28901.14
     UNSATURATED ZONE =       -1085516.04       UNSATURATED ZONE =         -12634.18
       SATURATED ZONE =       -1009634.32         SATURATED ZONE =          -9289.24

 OVERALL BUDGET ERROR =          -3355.32           BUDGET ERROR =             -8.07


  PERCENT DISCREPANCY =             -0.02    PERCENT DISCREPANCY =             -0.02



1
 SUMMARY VOLUMETRIC BUDGET FOR GSFLOW 
 DATE: 06 23 1981              CUMULATIVE TIME STEP:     266
 MODFLOW STRESS PERIOD      2     CURRENT TIME STEP:     266     ITERATIONS:       9

 -----------------------------------------------------------------------------------

   CUMULATIVE VOLUMES               L**3   RATES FOR THIS TIME STEP           L**3/T
   ------------------                      ------------------------

                                     IN                                         IN
                                     --                                         --
        PRECIPITATION =        1.8318D+07          PRECIPITATION =                  
           STREAMFLOW =                               STREAMFLOW =                  
     GW BOUNDARY FLOW =                         GW BOUNDARY FLOW =                  


                                    OUT                                        OUT
                                    ---                                        ---
   EVAPOTRANSPIRATION =        1.3758D+07     EVAPOTRANSPIRATION =          34722.21
           STREAMFLOW =        6323821.39             STREAMFLOW =           5947.25
     GW BOUNDARY FLOW =         193159.77       GW BOUNDARY FLOW =            721.62

   INFLOWS - OUTFLOWS =       -1956431.61     INFLOWS - OUTFLOWS =         -41391.08
             --------                                   --------

 TOTAL STORAGE CHANGE =       -1953029.79         STORAGE CHANGE =         -41384.42
       --------------                             --------------
         LAND SURFACE =                             LAND SURFACE =                  
            SOIL ZONE =         294407.40              SOIL ZONE =         -19752.53
     UNSATURATED ZONE =       -1169888.23       UNSATURATED ZONE =         -11537.28
       SATURATED ZONE =       -1077548.96         SATURATED ZONE =         -10094.60

 OVERALL BUDGET ERROR =          -3401.82           BUDGET ERROR =             -6.66


  PERCENT DISCREPANCY =             -0.02    PERCENT DISCREPANCY =             -0.02



1
 SUMMARY VOLUMETRIC BUDGET FOR GSFLOW 
 DATE: 06 30 1981              CUMULATIVE TIME STEP:     273
 MODFLOW STRESS PERIOD      2     CURRENT TIME STEP:     273     ITERATIONS:       7

 -----------------------------------------------------------------------------------

   CUMULATIVE VOLUMES               L**3   RATES FOR THIS TIME STEP           L**3/T
   ------------------                      ------------------------

                                     IN                                         IN
[...]
     GW BOUNDARY FLOW =        4176783.61       GW BOUNDARY FLOW =            725.86

   INFLOWS - OUTFLOWS =       -7140363.40     INFLOWS - OUTFLOWS =         -53434.94
             --------                                   --------

 TOTAL STORAGE CHANGE =       -7117820.15         STORAGE CHANGE =         -53432.92
       --------------                             --------------
         LAND SURFACE =          84495.33           LAND SURFACE =          -4962.88
            SOIL ZONE =         277719.51              SOIL ZONE =         -26628.72
     UNSATURATED ZONE =        4995154.30       UNSATURATED ZONE =         -28469.61
       SATURATED ZONE =       -1.2475D+07         SATURATED ZONE =           6628.29

 OVERALL BUDGET ERROR =         -22543.25           BUDGET ERROR =             -2.02


  PERCENT DISCREPANCY =             -0.00    PERCENT DISCREPANCY =             -0.00



1
 SUMMARY VOLUMETRIC BUDGET FOR GSFLOW 
 DATE: 07 30 1996              CUMULATIVE TIME STEP:    5782
 MODFLOW STRESS PERIOD      2     CURRENT TIME STEP:    5782     ITERATIONS:       9

 -----------------------------------------------------------------------------------

   CUMULATIVE VOLUMES               L**3   RATES FOR THIS TIME STEP           L**3/T
   ------------------                      ------------------------

                                     IN                                         IN
                                     --                                         --
        PRECIPITATION =        4.6511D+08          PRECIPITATION =                  
           STREAMFLOW =                               STREAMFLOW =                  
     GW BOUNDARY FLOW =                         GW BOUNDARY FLOW =                  


                                    OUT                                        OUT
                                    ---                                        ---
   EVAPOTRANSPIRATION =        2.8402D+08     EVAPOTRANSPIRATION =          30860.38
           STREAMFLOW =        1.8432D+08             STREAMFLOW =           6909.61
     GW BOUNDARY FLOW =        4181862.70       GW BOUNDARY FLOW =            725.47

   INFLOWS - OUTFLOWS =       -7414500.46     INFLOWS - OUTFLOWS =         -38495.46
             --------                                   --------

 TOTAL STORAGE CHANGE =       -7391950.21         STORAGE CHANGE =         -38498.06
       --------------                             --------------
         LAND SURFACE =          55405.90           LAND SURFACE =          -3487.93
            SOIL ZONE =         184118.05              SOIL ZONE =         -13515.26
     UNSATURATED ZONE =        4802655.78       UNSATURATED ZONE =         -27277.63
       SATURATED ZONE =       -1.2434D+07         SATURATED ZONE =           5782.75

 OVERALL BUDGET ERROR =         -22550.25           BUDGET ERROR =              2.60


  PERCENT DISCREPANCY =             -0.00    PERCENT DISCREPANCY =              0.01



1
 SUMMARY VOLUMETRIC BUDGET FOR GSFLOW 
 DATE: 08 06 1996              CUMULATIVE TIME STEP:    5789
 MODFLOW STRESS PERIOD      2     CURRENT TIME STEP:    5789     ITERATIONS:      10

 -----------------------------------------------------------------------------------

   CUMULATIVE VOLUMES               L**3   RATES FOR THIS TIME STEP           L**3/T
   ------------------                      ------------------------

                                     IN                                         IN
                                     --                                         --
        PRECIPITATION =        4.6511D+08          PRECIPITATION =                  
           STREAMFLOW =                               STREAMFLOW =                  
     GW BOUNDARY FLOW =                         GW BOUNDARY FLOW =                  


                                    OUT                                        OUT
                                    ---                                        ---
   EVAPOTRANSPIRATION =        2.8417D+08     EVAPOTRANSPIRATION =          21564.20
           STREAMFLOW =        1.8437D+08             STREAMFLOW =           6695.39
     GW BOUNDARY FLOW =        4186940.34       GW BOUNDARY FLOW =            725.29

   INFLOWS - OUTFLOWS =       -7614077.15     INFLOWS - OUTFLOWS =         -28984.87
             --------                                   --------

 TOTAL STORAGE CHANGE =       -7591513.29         STORAGE CHANGE =         -28982.95
       --------------                             --------------
         LAND SURFACE =          37062.04           LAND SURFACE =          -2253.66
            SOIL ZONE =         152038.52              SOIL ZONE =          -5559.43
     UNSATURATED ZONE =        4613982.43       UNSATURATED ZONE =         -26599.47
       SATURATED ZONE =       -1.2395D+07         SATURATED ZONE =           5429.61

 OVERALL BUDGET ERROR =         -22563.86           BUDGET ERROR =             -1.93


  PERCENT DISCREPANCY =             -0.00    PERCENT DISCREPANCY =             -0.01



1
 SUMMARY VOLUMETRIC BUDGET FOR GSFLOW 
 DATE: 08 13 1996              CUMULATIVE TIME STEP:    5796
 MODFLOW STRESS PERIOD      2     CURRENT TIME STEP:    5796     ITERATIONS:      11

 -----------------------------------------------------------------------------------

   CUMULATIVE VOLUMES               L**3   RATES FOR THIS TIME STEP           L**3/T
   ------------------                      ------------------------

                                     IN                                         IN
                                     --                                         --
        PRECIPITATION =        4.6531D+08          PRECIPITATION =          54454.08
           STREAMFLOW =                               STREAMFLOW =                  
     GW BOUNDARY FLOW =                         GW BOUNDARY FLOW =                  


                                    OUT                                        OUT
                                    ---                                        ---
   EVAPOTRANSPIRATION =        2.8435D+08     EVAPOTRANSPIRATION =          32647.51
           STREAMFLOW =        1.8442D+08             STREAMFLOW =           7897.69
     GW BOUNDARY FLOW =        4192016.66       GW BOUNDARY FLOW =            725.20

   INFLOWS - OUTFLOWS =       -7642391.21     INFLOWS - OUTFLOWS =          13183.69
             --------                                   --------

 TOTAL STORAGE CHANGE =       -7619820.63         STORAGE CHANGE =          13188.66
       --------------                             --------------
         LAND SURFACE =          53162.52           LAND SURFACE =          -2312.39
            SOIL ZONE =         254311.01              SOIL ZONE =          36265.89
     UNSATURATED ZONE =        4436534.81       UNSATURATED ZONE =         -24704.47
       SATURATED ZONE =       -1.2364D+07         SATURATED ZONE =           3939.62

 OVERALL BUDGET ERROR =         -22570.58           BUDGET ERROR =             -4.97


  PERCENT DISCREPANCY =             -0.00    PERCENT DISCREPANCY =             -0.01



1
 SUMMARY VOLUMETRIC BUDGET FOR GSFLOW 
 DATE: 08 20 1996              CUMULATIVE TIME STEP:    5803
 MODFLOW STRESS PERIOD      2     CURRENT TIME STEP:    5803     ITERATIONS:       9

 -----------------------------------------------------------------------------------

   CUMULATIVE VOLUMES               L**3   RATES FOR THIS TIME STEP           L**3/T
   ------------------                      ------------------------

                                     IN                                         IN
                                     --                                         --
        PRECIPITATION =        4.6531D+08          PRECIPITATION =                  
           STREAMFLOW =                               STREAMFLOW =                  
     GW BOUNDARY FLOW =                         GW BOUNDARY FLOW =                  


                                    OUT                                        OUT
                                    ---                                        ---
   EVAPOTRANSPIRATION =        2.8454D+08     EVAPOTRANSPIRATION =          18011.98
           STREAMFLOW =        1.8446D+08             STREAMFLOW =           6486.23
     GW BOUNDARY FLOW =        4197090.99       GW BOUNDARY FLOW =            724.69

   INFLOWS - OUTFLOWS =       -7892685.07     INFLOWS - OUTFLOWS =         -25222.91
             --------                                   --------

 TOTAL STORAGE CHANGE =       -7870098.93         STORAGE CHANGE =         -25223.53
       --------------                             --------------
         LAND SURFACE =           6921.38           LAND SURFACE =          -1297.31
            SOIL ZONE =         195359.25              SOIL ZONE =          -3310.78
     UNSATURATED ZONE =        4266853.26       UNSATURATED ZONE =         -23793.79
       SATURATED ZONE =       -1.2339D+07         SATURATED ZONE =           3178.36

 OVERALL BUDGET ERROR =         -22586.14           BUDGET ERROR =              0.62


  PERCENT DISCREPANCY =             -0.00    PERCENT DISCREPANCY =              0.00



1
 SUMMARY VOLUMETRIC BUDGET FOR GSFLOW 
 DATE: 08 27 1996              CUMULATIVE TIME STEP:    5810
 MODFLOW STRESS PERIOD      2     CURRENT TIME STEP:    5810     ITERATIONS:       9

 -----------------------------------------------------------------------------------

   CUMULATIVE VOLUMES               L**3   RATES FOR THIS TIME STEP           L**3/T
   ------------------                      ------------------------

                                     IN                                         IN
                                     --                                         --
        PRECIPITATION =        4.6531D+08          PRECIPITATION =                  
           STREAMFLOW =                               STREAMFLOW =                  
     GW BOUNDARY FLOW =                         GW BOUNDARY FLOW =                  


                                    OUT                                        OUT
                                    ---                                        ---
   EVAPOTRANSPIRATION =        2.8468D+08     EVAPOTRANSPIRATION =          15664.57
           STREAMFLOW =        1.8451D+08             STREAMFLOW =           6319.87
     GW BOUNDARY FLOW =        4202162.03       GW BOUNDARY FLOW =            724.25

   INFLOWS - OUTFLOWS =       -8082830.36     INFLOWS - OUTFLOWS =         -22708.70
             --------                                   --------

 TOTAL STORAGE CHANGE =       -8060245.38         STORAGE CHANGE =         -22709.18
       --------------                             --------------
         LAND SURFACE =           1243.96           LAND SURFACE =           -271.65
            SOIL ZONE =         154144.99              SOIL ZONE =          -2081.18
     UNSATURATED ZONE =        4105691.40       UNSATURATED ZONE =         -22852.45
       SATURATED ZONE =       -1.2321D+07         SATURATED ZONE =           2496.11

 OVERALL BUDGET ERROR =         -22584.97           BUDGET ERROR =              0.48


  PERCENT DISCREPANCY =             -0.00    PERCENT DISCREPANCY =              0.00



1
 SUMMARY VOLUMETRIC BUDGET FOR GSFLOW 
 DATE: 09 03 1996              CUMULATIVE TIME STEP:    5817
 MODFLOW STRESS PERIOD      2     CURRENT TIME STEP:    5817     ITERATIONS:       8

 -----------------------------------------------------------------------------------

   CUMULATIVE VOLUMES               L**3   RATES FOR THIS TIME STEP           L**3/T
   ------------------                      ------------------------

                                     IN                                         IN
                                     --                                         --
        PRECIPITATION =        4.6531D+08          PRECIPITATION =                  
           STREAMFLOW =                               STREAMFLOW =                  
     GW BOUNDARY FLOW =                         GW BOUNDARY FLOW =                  


                                    OUT                                        OUT
                                    ---                                        ---
   EVAPOTRANSPIRATION =        2.8479D+08     EVAPOTRANSPIRATION =          12480.12
           STREAMFLOW =        1.8455D+08             STREAMFLOW =           6213.58
     GW BOUNDARY FLOW =        4207229.92       GW BOUNDARY FLOW =            723.80

   INFLOWS - OUTFLOWS =       -8238296.96     INFLOWS - OUTFLOWS =         -19417.50
             --------                                   --------

 TOTAL STORAGE CHANGE =       -8215723.85         STORAGE CHANGE =         -19423.28
       --------------                             --------------
         LAND SURFACE =            583.76           LAND SURFACE =            -75.05
            SOIL ZONE =         140868.91              SOIL ZONE =            774.85
     UNSATURATED ZONE =        3950320.41       UNSATURATED ZONE =         -21827.98
       SATURATED ZONE =       -1.2307D+07         SATURATED ZONE =           1704.90

 OVERALL BUDGET ERROR =         -22573.11           BUDGET ERROR =              5.78


  PERCENT DISCREPANCY =             -0.00    PERCENT DISCREPANCY =              0.03



1
 SUMMARY VOLUMETRIC BUDGET FOR GSFLOW 
 DATE: 09 10 1996              CUMULATIVE TIME STEP:    5824
 MODFLOW STRESS PERIOD      2     CURRENT TIME STEP:    5824     ITERATIONS:       8

 -----------------------------------------------------------------------------------

   CUMULATIVE VOLUMES               L**3   RATES FOR THIS TIME STEP           L**3/T
   ------------------                      ------------------------

                                     IN                                         IN
                                     --                                         --
        PRECIPITATION =        4.6531D+08          PRECIPITATION =                  
           STREAMFLOW =                               STREAMFLOW =                  
     GW BOUNDARY FLOW =                         GW BOUNDARY FLOW =                  


                                    OUT                                        OUT
                                    ---                                        ---
   EVAPOTRANSPIRATION =        2.8488D+08     EVAPOTRANSPIRATION =          13706.82
           STREAMFLOW =        1.8460D+08             STREAMFLOW =           6117.88
     GW BOUNDARY FLOW =        4212294.76       GW BOUNDARY FLOW =            723.36

   INFLOWS - OUTFLOWS =       -8373002.53     INFLOWS - OUTFLOWS =         -20548.06
             --------                                   --------

 TOTAL STORAGE CHANGE =       -8350463.73         STORAGE CHANGE =         -20552.26
       --------------                             --------------
         LAND SURFACE =            141.35           LAND SURFACE =            -69.28
            SOIL ZONE =         146516.20              SOIL ZONE =           -587.68
     UNSATURATED ZONE =        3802199.72       UNSATURATED ZONE =         -20622.51
       SATURATED ZONE =       -1.2299D+07         SATURATED ZONE =            727.21

 OVERALL BUDGET ERROR =         -22538.80           BUDGET ERROR =              4.20


  PERCENT DISCREPANCY =             -0.00    PERCENT DISCREPANCY =              0.02



1
 SUMMARY VOLUMETRIC BUDGET FOR GSFLOW 
 DATE: 09 17 1996              CUMULATIVE TIME STEP:    5831
 MODFLOW STRESS PERIOD      2     CURRENT TIME STEP:    5831     ITERATIONS:      11

 -----------------------------------------------------------------------------------

   CUMULATIVE VOLUMES               L**3   RATES FOR THIS TIME STEP           L**3/T
   ------------------                      ------------------------

                                     IN                                         IN
                                     --                                         --
        PRECIPITATION =        4.6637D+08          PRECIPITATION =                  
           STREAMFLOW =                               STREAMFLOW =                  
     GW BOUNDARY FLOW =                         GW BOUNDARY FLOW =                  


                                    OUT                                        OUT
                                    ---                                        ---
   EVAPOTRANSPIRATION =        2.8505D+08     EVAPOTRANSPIRATION =          58054.02
           STREAMFLOW =        1.8466D+08             STREAMFLOW =          10259.29
     GW BOUNDARY FLOW =        4217359.20       GW BOUNDARY FLOW =            723.95

   INFLOWS - OUTFLOWS =       -7568409.41     INFLOWS - OUTFLOWS =         -69037.26
             --------                                   --------

 TOTAL STORAGE CHANGE =       -7545883.48         STORAGE CHANGE =         -69032.80
       --------------                             --------------
         LAND SURFACE =           3348.24           LAND SURFACE =         -35098.95
            SOIL ZONE =        1084304.29              SOIL ZONE =         -14262.01
     UNSATURATED ZONE =        3660140.56       UNSATURATED ZONE =         -19955.46
       SATURATED ZONE =       -1.2294D+07         SATURATED ZONE =            283.62

 OVERALL BUDGET ERROR =         -22525.93           BUDGET ERROR =             -4.45


  PERCENT DISCREPANCY =             -0.00    PERCENT DISCREPANCY =             -0.01



1
 SUMMARY VOLUMETRIC BUDGET FOR GSFLOW 
 DATE: 09 24 1996              CUMULATIVE TIME STEP:    5838
 MODFLOW STRESS PERIOD      2     CURRENT TIME STEP:    5838     ITERATIONS:      10

 -----------------------------------------------------------------------------------

   CUMULATIVE VOLUMES               L**3   RATES FOR THIS TIME STEP           L**3/T
   ------------------                      ------------------------

                                     IN                                         IN
                                     --                                         --
        PRECIPITATION =        4.6637D+08          PRECIPITATION =                  
           STREAMFLOW =                               STREAMFLOW =                  
     GW BOUNDARY FLOW =                         GW BOUNDARY FLOW =                  


                                    OUT                                        OUT
                                    ---                                        ---
   EVAPOTRANSPIRATION =        2.8553D+08     EVAPOTRANSPIRATION =          54376.07
           STREAMFLOW =        1.8472D+08             STREAMFLOW =           6730.12
     GW BOUNDARY FLOW =        4222422.07       GW BOUNDARY FLOW =            722.87

   INFLOWS - OUTFLOWS =       -8100333.97     INFLOWS - OUTFLOWS =         -61829.06
             --------                                   --------

 TOTAL STORAGE CHANGE =       -8077776.28         STORAGE CHANGE =         -61825.76
       --------------                             --------------
         LAND SURFACE =                             LAND SURFACE =                  
            SOIL ZONE =         692714.94              SOIL ZONE =         -42342.66
     UNSATURATED ZONE =        3524131.91       UNSATURATED ZONE =         -19021.42
       SATURATED ZONE =       -1.2295D+07         SATURATED ZONE =           -461.68

 OVERALL BUDGET ERROR =         -22557.69           BUDGET ERROR =             -3.31


  PERCENT DISCREPANCY =             -0.00    PERCENT DISCREPANCY =             -0.01



 Number of time steps:   5844;  Number of non-convergence:   0
 MF iterations:         45406;  SZ iterations:           45406
 Average MF iterations:  7.77;  Average SZ iterations:    7.77
 Maximum MF iterations:    24;  Maximum SZ iterations:      24

