1
 SUMMARY VOLUMETRIC BUDGET FOR GSFLOW 
 DATE: 10 07 1980              CUMULATIVE TIME STEP:       7
 MODFLOW STRESS PERIOD      2     CURRENT TIME STEP:       7     ITERATIONS:       4

 -----------------------------------------------------------------------------------

   CUMULATIVE VOLUMES               L**3   RATES FOR THIS TIME STEP           L**3/T
   ------------------                      ------------------------

                                     IN                                         IN
                                     --                                         --
        PRECIPITATION =                            PRECIPITATION =                  
           STREAMFLOW =                               STREAMFLOW =                  
     GW BOUNDARY FLOW =                         GW BOUNDARY FLOW =                  


                                    OUT                                        OUT
                                    ---                                        ---
   EVAPOTRANSPIRATION =          63052.02     EVAPOTRANSPIRATION =           9234.40
           STREAMFLOW =          43081.79             STREAMFLOW =           6083.36
     GW BOUNDARY FLOW =           5067.91       GW BOUNDARY FLOW =            723.89

   INFLOWS - OUTFLOWS =        -111201.71     INFLOWS - OUTFLOWS =         -16041.66
             --------                                   --------

 TOTAL STORAGE CHANGE =        -110967.58         STORAGE CHANGE =         -16007.41
       --------------                             --------------
         LAND SURFACE =                             LAND SURFACE =                  
            SOIL ZONE =          47393.18              SOIL ZONE =           6452.18
     UNSATURATED ZONE =        -144965.30       UNSATURATED ZONE =         -20382.35
       SATURATED ZONE =         -13395.46         SATURATED ZONE =          -2077.23

 OVERALL BUDGET ERROR =           -234.13           BUDGET ERROR =            -34.25


  PERCENT DISCREPANCY =             -0.21    PERCENT DISCREPANCY =             -0.21



1
 SUMMARY VOLUMETRIC BUDGET FOR GSFLOW 
 DATE: 10 14 1980              CUMULATIVE TIME STEP:      14
 MODFLOW STRESS PERIOD      2     CURRENT TIME STEP:      14     ITERATIONS:       4

 -----------------------------------------------------------------------------------

   CUMULATIVE VOLUMES               L**3   RATES FOR THIS TIME STEP           L**3/T
   ------------------                      ------------------------

                                     IN                                         IN
                                     --                                         --
        PRECIPITATION =         650779.83          PRECIPITATION =         164754.40
           STREAMFLOW =                               STREAMFLOW =                  
     GW BOUNDARY FLOW =                         GW BOUNDARY FLOW =                  


                                    OUT                                        OUT
                                    ---                                        ---
   EVAPOTRANSPIRATION =         147619.36     EVAPOTRANSPIRATION =           7972.95
           STREAMFLOW =          92731.15             STREAMFLOW =           7469.23
     GW BOUNDARY FLOW =          10135.61       GW BOUNDARY FLOW =            724.11

   INFLOWS - OUTFLOWS =         400293.72     INFLOWS - OUTFLOWS =         148588.10
             --------                                   --------

 TOTAL STORAGE CHANGE =         400762.07         STORAGE CHANGE =         148623.34
       --------------                             --------------
         LAND SURFACE =         277689.24           LAND SURFACE =         136623.45
            SOIL ZONE =         436723.84              SOIL ZONE =          34108.04
     UNSATURATED ZONE =        -284617.09       UNSATURATED ZONE =         -19599.40
       SATURATED ZONE =         -29033.92         SATURATED ZONE =          -2508.74

 OVERALL BUDGET ERROR =           -468.35           BUDGET ERROR =            -35.24


  PERCENT DISCREPANCY =             -0.07    PERCENT DISCREPANCY =             -0.02



1
 SUMMARY VOLUMETRIC BUDGET FOR GSFLOW 
 DATE: 10 21 1980              CUMULATIVE TIME STEP:      21
 MODFLOW STRESS PERIOD      2     CURRENT TIME STEP:      21     ITERATIONS:       5

 -----------------------------------------------------------------------------------

   CUMULATIVE VOLUMES               L**3   RATES FOR THIS TIME STEP           L**3/T
   ------------------                      ------------------------

                                     IN                                         IN
                                     --                                         --
        PRECIPITATION =         733157.03          PRECIPITATION =                  
           STREAMFLOW =                               STREAMFLOW =                  
     GW BOUNDARY FLOW =                         GW BOUNDARY FLOW =                  


                                    OUT                                        OUT
                                    ---                                        ---
   EVAPOTRANSPIRATION =         375888.87     EVAPOTRANSPIRATION =          36804.76
           STREAMFLOW =         144621.09             STREAMFLOW =           7058.83
     GW BOUNDARY FLOW =          15203.74       GW BOUNDARY FLOW =            723.94

   INFLOWS - OUTFLOWS =         197443.33     INFLOWS - OUTFLOWS =         -44587.54
             --------                                   --------

 TOTAL STORAGE CHANGE =         198132.04         STORAGE CHANGE =         -44557.34
       --------------                             --------------
         LAND SURFACE =           2250.88           LAND SURFACE =          -3153.72
            SOIL ZONE =         662992.28              SOIL ZONE =         -19494.80
     UNSATURATED ZONE =        -418520.85       UNSATURATED ZONE =         -18753.74
       SATURATED ZONE =         -48590.27         SATURATED ZONE =          -3155.07

 OVERALL BUDGET ERROR =           -688.72           BUDGET ERROR =            -30.20


  PERCENT DISCREPANCY =             -0.09    PERCENT DISCREPANCY =             -0.07



1
 SUMMARY VOLUMETRIC BUDGET FOR GSFLOW 
 DATE: 10 28 1980              CUMULATIVE TIME STEP:      28
 MODFLOW STRESS PERIOD      2     CURRENT TIME STEP:      28     ITERATIONS:       5

 -----------------------------------------------------------------------------------

   CUMULATIVE VOLUMES               L**3   RATES FOR THIS TIME STEP           L**3/T
   ------------------                      ------------------------

                                     IN                                         IN
                                     --                                         --
        PRECIPITATION =        1070903.53          PRECIPITATION =                  
           STREAMFLOW =                               STREAMFLOW =                  
     GW BOUNDARY FLOW =                         GW BOUNDARY FLOW =                  


                                    OUT                                        OUT
                                    ---                                        ---
   EVAPOTRANSPIRATION =         556723.42     EVAPOTRANSPIRATION =          23594.60
           STREAMFLOW =         199382.46             STREAMFLOW =           8003.26
     GW BOUNDARY FLOW =          20271.41       GW BOUNDARY FLOW =            724.02

   INFLOWS - OUTFLOWS =         294526.24     INFLOWS - OUTFLOWS =         -32321.88
             --------                                   --------

 TOTAL STORAGE CHANGE =         295424.12         STORAGE CHANGE =         -32292.03
       --------------                             --------------
         LAND SURFACE =          24619.51           LAND SURFACE =         -30948.99
            SOIL ZONE =         889811.30              SOIL ZONE =          20239.27
     UNSATURATED ZONE =        -546588.13       UNSATURATED ZONE =         -17916.52
       SATURATED ZONE =         -72418.56         SATURATED ZONE =          -3665.78

 OVERALL BUDGET ERROR =           -897.88           BUDGET ERROR =            -29.85


  PERCENT DISCREPANCY =             -0.08    PERCENT DISCREPANCY =             -0.09



1
 SUMMARY VOLUMETRIC BUDGET FOR GSFLOW 
 DATE: 11 04 1980              CUMULATIVE TIME STEP:      35
 MODFLOW STRESS PERIOD      2     CURRENT TIME STEP:      35     ITERATIONS:       6

 -----------------------------------------------------------------------------------

   CUMULATIVE VOLUMES               L**3   RATES FOR THIS TIME STEP           L**3/T
   ------------------                      ------------------------

                                     IN                                         IN
                                     --                                         --
        PRECIPITATION =        1070903.53          PRECIPITATION =                  
           STREAMFLOW =                               STREAMFLOW =                  
     GW BOUNDARY FLOW =                         GW BOUNDARY FLOW =                  


                                    OUT                                        OUT
                                    ---                                        ---
   EVAPOTRANSPIRATION =         854400.19     EVAPOTRANSPIRATION =          38393.45
           STREAMFLOW =         252100.85             STREAMFLOW =           7055.64
     GW BOUNDARY FLOW =          25338.70       GW BOUNDARY FLOW =            723.81

   INFLOWS - OUTFLOWS =         -60936.22     INFLOWS - OUTFLOWS =         -46172.90
             --------                                   --------

 TOTAL STORAGE CHANGE =         -59838.19         STORAGE CHANGE =         -46146.48
       --------------                             --------------
         LAND SURFACE =                             LAND SURFACE =                  
            SOIL ZONE =         710482.31              SOIL ZONE =         -24522.77
     UNSATURATED ZONE =        -669479.92       UNSATURATED ZONE =         -17299.71
       SATURATED ZONE =        -100840.58         SATURATED ZONE =          -4323.99

 OVERALL BUDGET ERROR =          -1098.03           BUDGET ERROR =            -26.42


  PERCENT DISCREPANCY =             -0.10    PERCENT DISCREPANCY =             -0.06



1
 SUMMARY VOLUMETRIC BUDGET FOR GSFLOW 
 DATE: 11 11 1980              CUMULATIVE TIME STEP:      42
 MODFLOW STRESS PERIOD      2     CURRENT TIME STEP:      42     ITERATIONS:       5

 -----------------------------------------------------------------------------------

   CUMULATIVE VOLUMES               L**3   RATES FOR THIS TIME STEP           L**3/T
   ------------------                      ------------------------

                                     IN                                         IN
                                     --                                         --
        PRECIPITATION =        1573762.54          PRECIPITATION =         255182.19
           STREAMFLOW =                               STREAMFLOW =                  
     GW BOUNDARY FLOW =                         GW BOUNDARY FLOW =                  


                                    OUT                                        OUT
                                    ---                                        ---
   EVAPOTRANSPIRATION =        1065571.61     EVAPOTRANSPIRATION =          14936.71
           STREAMFLOW =         308212.96             STREAMFLOW =          10758.43
     GW BOUNDARY FLOW =          30405.65       GW BOUNDARY FLOW =            724.07

   INFLOWS - OUTFLOWS =         169572.32     INFLOWS - OUTFLOWS =         228762.98
             --------                                   --------

 TOTAL STORAGE CHANGE =         170871.56         STORAGE CHANGE =         228791.30
       --------------                             --------------
         LAND SURFACE =          78612.95           LAND SURFACE =          76659.87
            SOIL ZONE =        1011650.89              SOIL ZONE =         172703.51
     UNSATURATED ZONE =        -787591.94       UNSATURATED ZONE =         -16457.37
       SATURATED ZONE =        -131800.34         SATURATED ZONE =          -4114.70

 OVERALL BUDGET ERROR =          -1299.25           BUDGET ERROR =            -28.32


  PERCENT DISCREPANCY =             -0.08    PERCENT DISCREPANCY =             -0.01



1
 SUMMARY VOLUMETRIC BUDGET FOR GSFLOW 
 DATE: 11 18 1980              CUMULATIVE TIME STEP:      49
 MODFLOW STRESS PERIOD      2     CURRENT TIME STEP:      49     ITERATIONS:       5

 -----------------------------------------------------------------------------------

   CUMULATIVE VOLUMES               L**3   RATES FOR THIS TIME STEP           L**3/T
   ------------------                      ------------------------

                                     IN                                         IN
                                     --                                         --
        PRECIPITATION =        1573762.54          PRECIPITATION =                  
           STREAMFLOW =                               STREAMFLOW =                  
     GW BOUNDARY FLOW =                         GW BOUNDARY FLOW =                  


                                    OUT                                        OUT
                                    ---                                        ---
   EVAPOTRANSPIRATION =        1154163.94     EVAPOTRANSPIRATION =          16737.73
           STREAMFLOW =         371524.79             STREAMFLOW =           9404.74
     GW BOUNDARY FLOW =          35474.18       GW BOUNDARY FLOW =            724.11

   INFLOWS - OUTFLOWS =          12599.62     INFLOWS - OUTFLOWS =         -26866.59
             --------                                   --------

 TOTAL STORAGE CHANGE =          14094.47         STORAGE CHANGE =         -26838.96
       --------------                             --------------
         LAND SURFACE =           8654.86           LAND SURFACE =          -6203.23
            SOIL ZONE =        1071929.68              SOIL ZONE =            281.38
     UNSATURATED ZONE =        -900931.35       UNSATURATED ZONE =         -15938.40
       SATURATED ZONE =        -165558.71         SATURATED ZONE =          -4978.71

 OVERALL BUDGET ERROR =          -1494.85           BUDGET ERROR =            -27.63


  PERCENT DISCREPANCY =             -0.09    PERCENT DISCREPANCY =             -0.10



1
 SUMMARY VOLUMETRIC BUDGET FOR GSFLOW 
 DATE: 11 25 1980              CUMULATIVE TIME STEP:      56
 MODFLOW STRESS PERIOD      2     CURRENT TIME STEP:      56     ITERATIONS:       6

 -----------------------------------------------------------------------------------

   CUMULATIVE VOLUMES               L**3   RATES FOR THIS TIME STEP           L**3/T
   ------------------                      ------------------------

                                     IN                                         IN
                                     --                                         --
        PRECIPITATION =        1648816.13          PRECIPITATION =                  
           STREAMFLOW =                               STREAMFLOW =                  
     GW BOUNDARY FLOW =                         GW BOUNDARY FLOW =                  


                                    OUT                                        OUT
                                    ---                                        ---
   EVAPOTRANSPIRATION =        1229750.54     EVAPOTRANSPIRATION =           8792.74
           STREAMFLOW =         438830.27             STREAMFLOW =           9929.75
     GW BOUNDARY FLOW =          40543.25       GW BOUNDARY FLOW =            724.19

   INFLOWS - OUTFLOWS =         -60307.93     INFLOWS - OUTFLOWS =         -19446.68
             --------                                   --------

 TOTAL STORAGE CHANGE =         -58629.71         STORAGE CHANGE =         -19423.72
       --------------                             --------------
         LAND SURFACE =          55166.83           LAND SURFACE =          -8744.58
            SOIL ZONE =        1098909.60              SOIL ZONE =          10141.02
     UNSATURATED ZONE =       -1010096.04       UNSATURATED ZONE =         -15333.01
       SATURATED ZONE =        -202610.10         SATURATED ZONE =          -5487.16

 OVERALL BUDGET ERROR =          -1678.22           BUDGET ERROR =            -22.96


  PERCENT DISCREPANCY =             -0.10    PERCENT DISCREPANCY =             -0.12



1
 SUMMARY VOLUMETRIC BUDGET FOR GSFLOW 
 DATE: 12 02 1980              CUMULATIVE TIME STEP:      63
 MODFLOW STRESS PERIOD      2     CURRENT TIME STEP:      63     ITERATIONS:       5

 -----------------------------------------------------------------------------------

   CUMULATIVE VOLUMES               L**3   RATES FOR THIS TIME STEP           L**3/T
   ------------------                      ------------------------

                                     IN                                         IN
                                     --                                         --
        PRECIPITATION =        2076621.55          PRECIPITATION =                  
           STREAMFLOW =                               STREAMFLOW =                  
     GW BOUNDARY FLOW =                         GW BOUNDARY FLOW =                  


                                    OUT                                        OUT
                                    ---                                        ---
   EVAPOTRANSPIRATION =        1423315.76     EVAPOTRANSPIRATION =          34189.30
           STREAMFLOW =         523312.03             STREAMFLOW =          15097.67
     GW BOUNDARY FLOW =          45614.38       GW BOUNDARY FLOW =            724.83

   INFLOWS - OUTFLOWS =          84379.38     INFLOWS - OUTFLOWS =         -50011.81
             --------                                   --------

 TOTAL STORAGE CHANGE =          86241.62         STORAGE CHANGE =         -49984.70
       --------------                             --------------
         LAND SURFACE =         152551.10           LAND SURFACE =         -75205.42
            SOIL ZONE =        1284272.19              SOIL ZONE =          42824.07
     UNSATURATED ZONE =       -1111074.06       UNSATURATED ZONE =         -12900.15
       SATURATED ZONE =        -239507.61         SATURATED ZONE =          -4703.19

 OVERALL BUDGET ERROR =          -1862.23           BUDGET ERROR =            -27.11


  PERCENT DISCREPANCY =             -0.09    PERCENT DISCREPANCY =             -0.05



1
 SUMMARY VOLUMETRIC BUDGET FOR GSFLOW 
 DATE: 12 09 1980              CUMULATIVE TIME STEP:      70
 MODFLOW STRESS PERIOD      2     CURRENT TIME STEP:      70     ITERATIONS:       5

 -----------------------------------------------------------------------------------

   CUMULATIVE VOLUMES               L**3   RATES FOR THIS TIME STEP           L**3/T
   ------------------                      ------------------------

                                     IN                                         IN
                                     --                                         --
        PRECIPITATION =        4284363.63          PRECIPITATION =                  
           STREAMFLOW =                               STREAMFLOW =                  
     GW BOUNDARY FLOW =                         GW BOUNDARY FLOW =                  


                                    OUT                                        OUT
                                    ---                                        ---
   EVAPOTRANSPIRATION =        1446734.13     EVAPOTRANSPIRATION =           2942.43
           STREAMFLOW =         621677.01             STREAMFLOW =          14307.03
     GW BOUNDARY FLOW =          50688.92       GW BOUNDARY FLOW =            725.02

   INFLOWS - OUTFLOWS =        2165263.58     INFLOWS - OUTFLOWS =         -17974.48
             --------                                   --------

 TOTAL STORAGE CHANGE =        2167305.82         STORAGE CHANGE =         -17947.99
       --------------                             --------------
         LAND SURFACE =        2335216.87           LAND SURFACE =          -2942.43
            SOIL ZONE =        1320678.39              SOIL ZONE =           5267.41
     UNSATURATED ZONE =       -1208777.22       UNSATURATED ZONE =         -14158.47
       SATURATED ZONE =        -279812.23         SATURATED ZONE =          -6114.50

 OVERALL BUDGET ERROR =          -2042.24           BUDGET ERROR =            -26.50


  PERCENT DISCREPANCY =             -0.05    PERCENT DISCREPANCY =             -0.15



1
 SUMMARY VOLUMETRIC BUDGET FOR GSFLOW 
 DATE: 12 16 1980              CUMULATIVE TIME STEP:      77
 MODFLOW STRESS PERIOD      2     CURRENT TIME STEP:      77     ITERATIONS:       5

 -----------------------------------------------------------------------------------

   CUMULATIVE VOLUMES               L**3   RATES FOR THIS TIME STEP           L**3/T
   ------------------                      ------------------------

                                     IN                                         IN
                                     --                                         --
        PRECIPITATION =        4284363.63          PRECIPITATION =                  
           STREAMFLOW =                               STREAMFLOW =                  
     GW BOUNDARY FLOW =                         GW BOUNDARY FLOW =                  


                                    OUT                                        OUT
                                    ---                                        ---
   EVAPOTRANSPIRATION =        1588733.48     EVAPOTRANSPIRATION =          33888.80
           STREAMFLOW =         740191.66             STREAMFLOW =          24561.81
     GW BOUNDARY FLOW =          55765.92       GW BOUNDARY FLOW =            725.87

   INFLOWS - OUTFLOWS =        1899672.57     INFLOWS - OUTFLOWS =         -59176.48
             --------                                   --------

 TOTAL STORAGE CHANGE =        1901887.57         STORAGE CHANGE =         -59149.80
       --------------                             --------------
         LAND SURFACE =        2023939.67           LAND SURFACE =        -129021.52
            SOIL ZONE =        1497286.48              SOIL ZONE =          83535.74
     UNSATURATED ZONE =       -1298202.72       UNSATURATED ZONE =          -9035.10
       SATURATED ZONE =        -321135.86         SATURATED ZONE =          -4628.91

 OVERALL BUDGET ERROR =          -2215.00           BUDGET ERROR =            -26.68


  PERCENT DISCREPANCY =             -0.05    PERCENT DISCREPANCY =             -0.05



1
 SUMMARY VOLUMETRIC BUDGET FOR GSFLOW 
 DATE: 12 23 1980              CUMULATIVE TIME STEP:      84
 MODFLOW STRESS PERIOD      2     CURRENT TIME STEP:      84     ITERATIONS:       6

 -----------------------------------------------------------------------------------

   CUMULATIVE VOLUMES               L**3   RATES FOR THIS TIME STEP           L**3/T
   ------------------                      ------------------------

                                     IN                                         IN
                                     --                                         --
        PRECIPITATION =        4516757.54          PRECIPITATION =                  
           STREAMFLOW =                               STREAMFLOW =                  
     GW BOUNDARY FLOW =                         GW BOUNDARY FLOW =                  


                                    OUT                                        OUT
                                    ---                                        ---
   EVAPOTRANSPIRATION =        1794786.58     EVAPOTRANSPIRATION =          35140.32
           STREAMFLOW =         964724.06             STREAMFLOW =          29954.34
     GW BOUNDARY FLOW =          60857.87       GW BOUNDARY FLOW =            728.02

   INFLOWS - OUTFLOWS =        1696389.03     INFLOWS - OUTFLOWS =         -65822.68
             --------                                   --------

 TOTAL STORAGE CHANGE =        1698755.54         STORAGE CHANGE =         -65804.77
       --------------                             --------------
         LAND SURFACE =        1433268.50           LAND SURFACE =         -48191.47
            SOIL ZONE =        1955622.21              SOIL ZONE =          -6834.41
     UNSATURATED ZONE =       -1340146.43       UNSATURATED ZONE =          -6028.30
       SATURATED ZONE =        -349988.73         SATURATED ZONE =          -4750.59

 OVERALL BUDGET ERROR =          -2366.51           BUDGET ERROR =            -17.91


  PERCENT DISCREPANCY =             -0.05    PERCENT DISCREPANCY =             -0.03



1
 SUMMARY VOLUMETRIC BUDGET FOR GSFLOW 
 DATE: 12 30 1980              CUMULATIVE TIME STEP:      91
 MODFLOW STRESS PERIOD      2     CURRENT TIME STEP:      91     ITERATIONS:       7

 -----------------------------------------------------------------------------------

   CUMULATIVE VOLUMES               L**3   RATES FOR THIS TIME STEP           L**3/T
   ------------------                      ------------------------

                                     IN                                         IN
                                     --                                         --
        PRECIPITATION =        4516757.54          PRECIPITATION =                  
           STREAMFLOW =                               STREAMFLOW =                  
     GW BOUNDARY FLOW =                         GW BOUNDARY FLOW =                  


                                    OUT                                        OUT
                                    ---                                        ---
   EVAPOTRANSPIRATION =        2155419.08     EVAPOTRANSPIRATION =          45887.78
           STREAMFLOW =        1206490.46             STREAMFLOW =          26761.21
     GW BOUNDARY FLOW =          65958.32       GW BOUNDARY FLOW =            728.54

   INFLOWS - OUTFLOWS =        1088889.67     INFLOWS - OUTFLOWS =         -73377.53
             --------                                   --------

 TOTAL STORAGE CHANGE =        1091356.30         STORAGE CHANGE =         -73365.27
       --------------                             --------------
         LAND SURFACE =         641159.81           LAND SURFACE =         -40370.18
            SOIL ZONE =        2180729.26              SOIL ZONE =         -23685.09
     UNSATURATED ZONE =       -1355235.06       UNSATURATED ZONE =          -5258.18
       SATURATED ZONE =        -375297.71         SATURATED ZONE =          -4051.83

 OVERALL BUDGET ERROR =          -2466.63           BUDGET ERROR =            -12.26


  PERCENT DISCREPANCY =             -0.05    PERCENT DISCREPANCY =             -0.02



1
 SUMMARY VOLUMETRIC BUDGET FOR GSFLOW 
 DATE: 01 06 1981              CUMULATIVE TIME STEP:      98
 MODFLOW STRESS PERIOD      2     CURRENT TIME STEP:      98     ITERATIONS:       6

 -----------------------------------------------------------------------------------

   CUMULATIVE VOLUMES               L**3   RATES FOR THIS TIME STEP           L**3/T
   ------------------                      ------------------------

                                     IN                                         IN
                                     --                                         --
        PRECIPITATION =        5004445.43          PRECIPITATION =                  
           STREAMFLOW =                               STREAMFLOW =                  
     GW BOUNDARY FLOW =                         GW BOUNDARY FLOW =                  


                                    OUT                                        OUT
                                    ---                                        ---
   EVAPOTRANSPIRATION =        2383343.83     EVAPOTRANSPIRATION =          21388.78
           STREAMFLOW =        1359326.03             STREAMFLOW =          21087.93
     GW BOUNDARY FLOW =          71051.63       GW BOUNDARY FLOW =            727.11

   INFLOWS - OUTFLOWS =        1190723.94     INFLOWS - OUTFLOWS =         -43203.82
             --------                                   --------

 TOTAL STORAGE CHANGE =        1193283.58         STORAGE CHANGE =         -43190.38
       --------------                             --------------
         LAND SURFACE =         837080.27           LAND SURFACE =         -30417.06
            SOIL ZONE =        2191126.36              SOIL ZONE =           3026.36
     UNSATURATED ZONE =       -1420948.78       UNSATURATED ZONE =          -9856.42
       SATURATED ZONE =        -413974.27         SATURATED ZONE =          -5943.25

 OVERALL BUDGET ERROR =          -2559.64           BUDGET ERROR =            -13.44


  PERCENT DISCREPANCY =             -0.05    PERCENT DISCREPANCY =             -0.03



1
 SUMMARY VOLUMETRIC BUDGET FOR GSFLOW 
 DATE: 01 13 1981              CUMULATIVE TIME STEP:     105
 MODFLOW STRESS PERIOD      2     CURRENT TIME STEP:     105     ITERATIONS:       6

 -----------------------------------------------------------------------------------

   CUMULATIVE VOLUMES               L**3   RATES FOR THIS TIME STEP           L**3/T
   ------------------                      ------------------------

                                     IN                                         IN
                                     --                                         --
        PRECIPITATION =        5004445.43          PRECIPITATION =                  
           STREAMFLOW =                               STREAMFLOW =                  
     GW BOUNDARY FLOW =                         GW BOUNDARY FLOW =                  


                                    OUT                                        OUT
                                    ---                                        ---
   EVAPOTRANSPIRATION =        2600856.48     EVAPOTRANSPIRATION =          44455.00
           STREAMFLOW =        1506317.26             STREAMFLOW =          19895.30
     GW BOUNDARY FLOW =          76139.16       GW BOUNDARY FLOW =            726.55

   INFLOWS - OUTFLOWS =         821132.53     INFLOWS - OUTFLOWS =         -65076.85
             --------                                   --------

 TOTAL STORAGE CHANGE =         823803.17         STORAGE CHANGE =         -65062.89
       --------------                             --------------
         LAND SURFACE =         626702.00           LAND SURFACE =         -38991.59
            SOIL ZONE =        2140872.88              SOIL ZONE =         -10365.20
     UNSATURATED ZONE =       -1485677.55       UNSATURATED ZONE =          -9155.01
       SATURATED ZONE =        -458094.17         SATURATED ZONE =          -6551.08

 OVERALL BUDGET ERROR =          -2670.64           BUDGET ERROR =            -13.96


  PERCENT DISCREPANCY =             -0.05    PERCENT DISCREPANCY =             -0.02



1
 SUMMARY VOLUMETRIC BUDGET FOR GSFLOW 
 DATE: 01 20 1981              CUMULATIVE TIME STEP:     112
 MODFLOW STRESS PERIOD      2     CURRENT TIME STEP:     112     ITERATIONS:       6

 -----------------------------------------------------------------------------------

   CUMULATIVE VOLUMES               L**3   RATES FOR THIS TIME STEP           L**3/T
   ------------------                      ------------------------

                                     IN                                         IN
                                     --                                         --
        PRECIPITATION =        5170466.84          PRECIPITATION =          41505.35
           STREAMFLOW =                               STREAMFLOW =                  
     GW BOUNDARY FLOW =                         GW BOUNDARY FLOW =                  


                                    OUT                                        OUT
                                    ---                                        ---
   EVAPOTRANSPIRATION =        2883129.48     EVAPOTRANSPIRATION =          35211.68
           STREAMFLOW =        1647920.35             STREAMFLOW =          20000.44
     GW BOUNDARY FLOW =          81224.13       GW BOUNDARY FLOW =            726.36

   INFLOWS - OUTFLOWS =         558192.89     INFLOWS - OUTFLOWS =         -14433.13
             --------                                   --------

 TOTAL STORAGE CHANGE =         560962.25         STORAGE CHANGE =         -14419.08
       --------------                             --------------
         LAND SURFACE =         436285.42           LAND SURFACE =           4326.68
            SOIL ZONE =        2147855.94              SOIL ZONE =          -9997.86
     UNSATURATED ZONE =       -1518145.93       UNSATURATED ZONE =          -1867.18
       SATURATED ZONE =        -505033.18         SATURATED ZONE =          -6880.73

 OVERALL BUDGET ERROR =          -2769.36           BUDGET ERROR =            -14.05


  PERCENT DISCREPANCY =             -0.05    PERCENT DISCREPANCY =             -0.03



1
 SUMMARY VOLUMETRIC BUDGET FOR GSFLOW 
 DATE: 01 27 1981              CUMULATIVE TIME STEP:     119
 MODFLOW STRESS PERIOD      2     CURRENT TIME STEP:     119     ITERATIONS:       6

 -----------------------------------------------------------------------------------

   CUMULATIVE VOLUMES               L**3   RATES FOR THIS TIME STEP           L**3/T
   ------------------                      ------------------------

                                     IN                                         IN
                                     --                                         --
        PRECIPITATION =        8646540.08          PRECIPITATION =        2936503.63
           STREAMFLOW =                               STREAMFLOW =                  
     GW BOUNDARY FLOW =                         GW BOUNDARY FLOW =                  


                                    OUT                                        OUT
                                    ---                                        ---
   EVAPOTRANSPIRATION =        3117698.39     EVAPOTRANSPIRATION =          13120.97
           STREAMFLOW =        1792661.65             STREAMFLOW =          18591.46
     GW BOUNDARY FLOW =          86308.40       GW BOUNDARY FLOW =            726.09

   INFLOWS - OUTFLOWS =        3649871.64     INFLOWS - OUTFLOWS =        2904065.12
             --------                                   --------

 TOTAL STORAGE CHANGE =        3652714.36         STORAGE CHANGE =        2904075.43
       --------------                             --------------
         LAND SURFACE =        3540180.85           LAND SURFACE =        2923352.24
            SOIL ZONE =        2170668.44              SOIL ZONE =          -7540.07
     UNSATURATED ZONE =       -1506292.96       UNSATURATED ZONE =          -4601.36
       SATURATED ZONE =        -551841.97         SATURATED ZONE =          -7135.39

 OVERALL BUDGET ERROR =          -2842.71           BUDGET ERROR =            -10.31


  PERCENT DISCREPANCY =             -0.03    PERCENT DISCREPANCY =             -0.00



1
 SUMMARY VOLUMETRIC BUDGET FOR GSFLOW 
 DATE: 02 03 1981              CUMULATIVE TIME STEP:     126
 MODFLOW STRESS PERIOD      2     CURRENT TIME STEP:     126     ITERATIONS:       7

 -----------------------------------------------------------------------------------

   CUMULATIVE VOLUMES               L**3   RATES FOR THIS TIME STEP           L**3/T
   ------------------                      ------------------------

                                     IN                                         IN
                                     --                                         --
        PRECIPITATION =        1.1739D+07          PRECIPITATION =                  
           STREAMFLOW =                               STREAMFLOW =                  
     GW BOUNDARY FLOW =                         GW BOUNDARY FLOW =                  


                                    OUT                                        OUT
                                    ---                                        ---
   EVAPOTRANSPIRATION =        3154211.44     EVAPOTRANSPIRATION =           6975.48
           STREAMFLOW =        1918770.68             STREAMFLOW =          17910.42
     GW BOUNDARY FLOW =          91389.73       GW BOUNDARY FLOW =            725.83

   INFLOWS - OUTFLOWS =        6574316.92     INFLOWS - OUTFLOWS =         -25611.74
             --------                                   --------

 TOTAL STORAGE CHANGE =        6577234.55         STORAGE CHANGE =         -25603.13
       --------------                             --------------
         LAND SURFACE =        6595816.50           LAND SURFACE =          -6975.48
            SOIL ZONE =        2159923.23              SOIL ZONE =            515.59
     UNSATURATED ZONE =       -1573059.22       UNSATURATED ZONE =         -11223.71
       SATURATED ZONE =        -605445.97         SATURATED ZONE =          -7919.53

 OVERALL BUDGET ERROR =          -2917.63           BUDGET ERROR =             -8.60


  PERCENT DISCREPANCY =             -0.02    PERCENT DISCREPANCY =             -0.03



1
 SUMMARY VOLUMETRIC BUDGET FOR GSFLOW 
 DATE: 02 10 1981              CUMULATIVE TIME STEP:     133
 MODFLOW STRESS PERIOD      2     CURRENT TIME STEP:     133     ITERATIONS:       5

 -----------------------------------------------------------------------------------

   CUMULATIVE VOLUMES               L**3   RATES FOR THIS TIME STEP           L**3/T
   ------------------                      ------------------------

                                     IN                                         IN
                                     --                                         --
        PRECIPITATION =        1.1838D+07          PRECIPITATION =                  
           STREAMFLOW =                               STREAMFLOW =                  
     GW BOUNDARY FLOW =                         GW BOUNDARY FLOW =                  


                                    OUT                                        OUT
                                    ---                                        ---
   EVAPOTRANSPIRATION =        3279612.50     EVAPOTRANSPIRATION =          32880.06
           STREAMFLOW =        2044374.54             STREAMFLOW =          17968.67
     GW BOUNDARY FLOW =          96470.60       GW BOUNDARY FLOW =            725.83

   INFLOWS - OUTFLOWS =        6417795.64     INFLOWS - OUTFLOWS =         -51574.56
             --------                                   --------

 TOTAL STORAGE CHANGE =        6420810.68         STORAGE CHANGE =         -51555.96
       --------------                             --------------
         LAND SURFACE =        6569979.95           LAND SURFACE =         -32880.06
            SOIL ZONE =        2164327.78              SOIL ZONE =            612.43
     UNSATURATED ZONE =       -1649480.57       UNSATURATED ZONE =         -10562.68
       SATURATED ZONE =        -664016.48         SATURATED ZONE =          -8725.66

 OVERALL BUDGET ERROR =          -3015.04           BUDGET ERROR =            -18.59


  PERCENT DISCREPANCY =             -0.03    PERCENT DISCREPANCY =             -0.04



1
 SUMMARY VOLUMETRIC BUDGET FOR GSFLOW 
 DATE: 02 17 1981              CUMULATIVE TIME STEP:     140
 MODFLOW STRESS PERIOD      2     CURRENT TIME STEP:     140     ITERATIONS:      10

 -----------------------------------------------------------------------------------

   CUMULATIVE VOLUMES               L**3   RATES FOR THIS TIME STEP           L**3/T
   ------------------                      ------------------------

                                     IN                                         IN
                                     --                                         --
        PRECIPITATION =        1.2765D+07          PRECIPITATION =          68929.28
           STREAMFLOW =                               STREAMFLOW =                  
     GW BOUNDARY FLOW =                         GW BOUNDARY FLOW =                  


                                    OUT                                        OUT
                                    ---                                        ---
   EVAPOTRANSPIRATION =        3617710.29     EVAPOTRANSPIRATION =          68607.56
           STREAMFLOW =        2584000.78             STREAMFLOW =         124495.14
     GW BOUNDARY FLOW =         101579.95       GW BOUNDARY FLOW =            734.46

   INFLOWS - OUTFLOWS =        6461678.07     INFLOWS - OUTFLOWS =        -124907.88
             --------                                   --------

 TOTAL STORAGE CHANGE =        6464799.38         STORAGE CHANGE =        -124894.91
       --------------                             --------------
         LAND SURFACE =        5590061.11           LAND SURFACE =        -278671.93
            SOIL ZONE =        2956997.78              SOIL ZONE =          71822.91
     UNSATURATED ZONE =       -1400833.42       UNSATURATED ZONE =          79568.86
       SATURATED ZONE =        -681426.10         SATURATED ZONE =           2385.24

 OVERALL BUDGET ERROR =          -3121.30           BUDGET ERROR =            -12.97


  PERCENT DISCREPANCY =             -0.02    PERCENT DISCREPANCY =             -0.01



1
 SUMMARY VOLUMETRIC BUDGET FOR GSFLOW 
 DATE: 02 24 1981              CUMULATIVE TIME STEP:     147
 MODFLOW STRESS PERIOD      2     CURRENT TIME STEP:     147     ITERATIONS:       9

 -----------------------------------------------------------------------------------

   CUMULATIVE VOLUMES               L**3   RATES FOR THIS TIME STEP           L**3/T
   ------------------                      ------------------------

                                     IN                                         IN
                                     --                                         --
        PRECIPITATION =        1.3179D+07          PRECIPITATION =         344646.37
           STREAMFLOW =                               STREAMFLOW =                  
     GW BOUNDARY FLOW =                         GW BOUNDARY FLOW =                  


                                    OUT                                        OUT
                                    ---                                        ---
   EVAPOTRANSPIRATION =        3959031.88     EVAPOTRANSPIRATION =          18832.76
           STREAMFLOW =        3139287.63             STREAMFLOW =          51790.33
     GW BOUNDARY FLOW =         106714.55       GW BOUNDARY FLOW =            732.09

   INFLOWS - OUTFLOWS =        5973510.69     INFLOWS - OUTFLOWS =         273291.18
             --------                                   --------

 TOTAL STORAGE CHANGE =        5976662.49         STORAGE CHANGE =         273292.64
       --------------                             --------------
         LAND SURFACE =        4984244.21           LAND SURFACE =         286368.61
            SOIL ZONE =        2695048.00              SOIL ZONE =         -43260.47
     UNSATURATED ZONE =       -1046008.32       UNSATURATED ZONE =          27600.67
       SATURATED ZONE =        -656621.41         SATURATED ZONE =           2583.83

 OVERALL BUDGET ERROR =          -3151.80           BUDGET ERROR =             -1.45


  PERCENT DISCREPANCY =             -0.02    PERCENT DISCREPANCY =             -0.00



1
 SUMMARY VOLUMETRIC BUDGET FOR GSFLOW 
 DATE: 03 03 1981              CUMULATIVE TIME STEP:     154
 MODFLOW STRESS PERIOD      2     CURRENT TIME STEP:     154     ITERATIONS:       8

 -----------------------------------------------------------------------------------

   CUMULATIVE VOLUMES               L**3   RATES FOR THIS TIME STEP           L**3/T
   ------------------                      ------------------------

                                     IN                                         IN
                                     --                                         --
        PRECIPITATION =        1.3447D+07          PRECIPITATION =                  
           STREAMFLOW =                               STREAMFLOW =                  
     GW BOUNDARY FLOW =                         GW BOUNDARY FLOW =                  


                                    OUT                                        OUT
                                    ---                                        ---
   EVAPOTRANSPIRATION =        4119714.61     EVAPOTRANSPIRATION =          45353.75
           STREAMFLOW =        3362456.48             STREAMFLOW =          27721.61
     GW BOUNDARY FLOW =         111822.31       GW BOUNDARY FLOW =            728.46

   INFLOWS - OUTFLOWS =        5852609.65     INFLOWS - OUTFLOWS =         -73803.82
             --------                                   --------

 TOTAL STORAGE CHANGE =        5855721.28         STORAGE CHANGE =         -73808.67
       --------------                             --------------
         LAND SURFACE =        5068137.31           LAND SURFACE =         -66041.98
            SOIL ZONE =        2487616.68              SOIL ZONE =           2891.77
     UNSATURATED ZONE =       -1039766.45       UNSATURATED ZONE =          -8752.15
       SATURATED ZONE =        -660266.25         SATURATED ZONE =          -1906.32

 OVERALL BUDGET ERROR =          -3111.63           BUDGET ERROR =              4.85


  PERCENT DISCREPANCY =             -0.02    PERCENT DISCREPANCY =              0.01



1
 SUMMARY VOLUMETRIC BUDGET FOR GSFLOW 
 DATE: 03 10 1981              CUMULATIVE TIME STEP:     161
 MODFLOW STRESS PERIOD      2     CURRENT TIME STEP:     161     ITERATIONS:       7

 -----------------------------------------------------------------------------------

   CUMULATIVE VOLUMES               L**3   RATES FOR THIS TIME STEP           L**3/T
   ------------------                      ------------------------

                                     IN                                         IN
                                     --                                         --
        PRECIPITATION =        1.3493D+07          PRECIPITATION =                  
           STREAMFLOW =                               STREAMFLOW =                  
     GW BOUNDARY FLOW =                         GW BOUNDARY FLOW =                  


                                    OUT                                        OUT
                                    ---                                        ---
   EVAPOTRANSPIRATION =        4465504.19     EVAPOTRANSPIRATION =          72811.00
           STREAMFLOW =        3597790.29             STREAMFLOW =          43442.91
     GW BOUNDARY FLOW =         116921.24       GW BOUNDARY FLOW =            729.25

   INFLOWS - OUTFLOWS =        5312725.43     INFLOWS - OUTFLOWS =        -116983.16
             --------                                   --------

 TOTAL STORAGE CHANGE =        5315823.09         STORAGE CHANGE =        -116984.42
       --------------                             --------------
         LAND SURFACE =        4391652.97           LAND SURFACE =        -169089.79
            SOIL ZONE =        2600921.64              SOIL ZONE =          28926.52
     UNSATURATED ZONE =       -1005126.80       UNSATURATED ZONE =          23705.59
       SATURATED ZONE =        -671624.72         SATURATED ZONE =           -526.73

 OVERALL BUDGET ERROR =          -3097.66           BUDGET ERROR =              1.26


  PERCENT DISCREPANCY =             -0.02    PERCENT DISCREPANCY =              0.00



1
 SUMMARY VOLUMETRIC BUDGET FOR GSFLOW 
 DATE: 03 17 1981              CUMULATIVE TIME STEP:     168
 MODFLOW STRESS PERIOD      2     CURRENT TIME STEP:     168     ITERATIONS:       6

 -----------------------------------------------------------------------------------

   CUMULATIVE VOLUMES               L**3   RATES FOR THIS TIME STEP           L**3/T
   ------------------                      ------------------------

                                     IN                                         IN
                                     --                                         --
        PRECIPITATION =        1.3744D+07          PRECIPITATION =                  
           STREAMFLOW =                               STREAMFLOW =                  
     GW BOUNDARY FLOW =                         GW BOUNDARY FLOW =                  


                                    OUT                                        OUT
                                    ---                                        ---
   EVAPOTRANSPIRATION =        4833913.95     EVAPOTRANSPIRATION =          40234.36
           STREAMFLOW =        3823981.42             STREAMFLOW =          24095.06
     GW BOUNDARY FLOW =         122022.13       GW BOUNDARY FLOW =            727.93

   INFLOWS - OUTFLOWS =        4964573.39     INFLOWS - OUTFLOWS =         -65057.35
             --------                                   --------

 TOTAL STORAGE CHANGE =        4967649.13         STORAGE CHANGE =         -65054.74
       --------------                             --------------
         LAND SURFACE =        4202420.68           LAND SURFACE =         -39897.13
            SOIL ZONE =        2436116.75              SOIL ZONE =          -5350.71
     UNSATURATED ZONE =        -981556.28       UNSATURATED ZONE =         -15582.98
       SATURATED ZONE =        -689332.02         SATURATED ZONE =          -4223.92

 OVERALL BUDGET ERROR =          -3075.74           BUDGET ERROR =             -2.61


  PERCENT DISCREPANCY =             -0.02    PERCENT DISCREPANCY =             -0.00



1
 SUMMARY VOLUMETRIC BUDGET FOR GSFLOW 
 DATE: 03 24 1981              CUMULATIVE TIME STEP:     175
 MODFLOW STRESS PERIOD      2     CURRENT TIME STEP:     175     ITERATIONS:       6

 -----------------------------------------------------------------------------------

   CUMULATIVE VOLUMES               L**3   RATES FOR THIS TIME STEP           L**3/T
   ------------------                      ------------------------

                                     IN                                         IN
                                     --                                         --
        PRECIPITATION =        1.4367D+07          PRECIPITATION =                  
           STREAMFLOW =                               STREAMFLOW =                  
     GW BOUNDARY FLOW =                         GW BOUNDARY FLOW =                  


                                    OUT                                        OUT
                                    ---                                        ---
   EVAPOTRANSPIRATION =        5189691.28     EVAPOTRANSPIRATION =          87428.11
           STREAMFLOW =        3999621.47             STREAMFLOW =          26770.18
     GW BOUNDARY FLOW =         127114.24       GW BOUNDARY FLOW =            727.40

   INFLOWS - OUTFLOWS =        5050318.53     INFLOWS - OUTFLOWS =        -114925.69
             --------                                   --------

 TOTAL STORAGE CHANGE =        5053429.98         STORAGE CHANGE =        -114922.51
       --------------                             --------------
         LAND SURFACE =        4477696.12           LAND SURFACE =         -65035.10
            SOIL ZONE =        2348904.90              SOIL ZONE =         -41071.91
     UNSATURATED ZONE =       -1049026.37       UNSATURATED ZONE =          -3546.04
       SATURATED ZONE =        -724144.67         SATURATED ZONE =          -5269.47

 OVERALL BUDGET ERROR =          -3111.45           BUDGET ERROR =             -3.18


  PERCENT DISCREPANCY =             -0.02    PERCENT DISCREPANCY =             -0.00



1
 SUMMARY VOLUMETRIC BUDGET FOR GSFLOW 
 DATE: 03 31 1981              CUMULATIVE TIME STEP:     182
 MODFLOW STRESS PERIOD      2     CURRENT TIME STEP:     182     ITERATIONS:       8

 -----------------------------------------------------------------------------------

   CUMULATIVE VOLUMES               L**3   RATES FOR THIS TIME STEP           L**3/T
   ------------------                      ------------------------

                                     IN                                         IN
                                     --                                         --
        PRECIPITATION =        1.5777D+07          PRECIPITATION =                  
           STREAMFLOW =                               STREAMFLOW =                  
     GW BOUNDARY FLOW =                         GW BOUNDARY FLOW =                  


                                    OUT                                        OUT
                                    ---                                        ---
   EVAPOTRANSPIRATION =        5619628.67     EVAPOTRANSPIRATION =          54090.27
           STREAMFLOW =        4506554.65             STREAMFLOW =          36966.64
     GW BOUNDARY FLOW =         132234.56       GW BOUNDARY FLOW =            730.25

   INFLOWS - OUTFLOWS =        5518330.10     INFLOWS - OUTFLOWS =         -91787.15
             --------                                   --------

 TOTAL STORAGE CHANGE =        5521431.23         STORAGE CHANGE =         -91796.28
       --------------                             --------------
         LAND SURFACE =        4494242.72           LAND SURFACE =         -55488.75
            SOIL ZONE =        2545327.18              SOIL ZONE =         -41656.52
     UNSATURATED ZONE =        -800656.44       UNSATURATED ZONE =           6337.73
       SATURATED ZONE =        -717482.24         SATURATED ZONE =           -988.74

 OVERALL BUDGET ERROR =          -3101.13           BUDGET ERROR =              9.13


  PERCENT DISCREPANCY =             -0.02    PERCENT DISCREPANCY =              0.01



1
 SUMMARY VOLUMETRIC BUDGET FOR GSFLOW 
 DATE: 04 07 1981              CUMULATIVE TIME STEP:     189
 MODFLOW STRESS PERIOD      2     CURRENT TIME STEP:     189     ITERATIONS:       7

 -----------------------------------------------------------------------------------

   CUMULATIVE VOLUMES               L**3   RATES FOR THIS TIME STEP           L**3/T
   ------------------                      ------------------------

                                     IN                                         IN
                                     --                                         --
        PRECIPITATION =        1.6121D+07          PRECIPITATION =                  
           STREAMFLOW =                               STREAMFLOW =                  
     GW BOUNDARY FLOW =                         GW BOUNDARY FLOW =                  


                                    OUT                                        OUT
                                    ---                                        ---
   EVAPOTRANSPIRATION =        6245694.91     EVAPOTRANSPIRATION =         103845.38
           STREAMFLOW =        4823648.42             STREAMFLOW =          43223.24
     GW BOUNDARY FLOW =         137345.99       GW BOUNDARY FLOW =            730.43

   INFLOWS - OUTFLOWS =        4914778.29     INFLOWS - OUTFLOWS =        -147799.05
             --------                                   --------

 TOTAL STORAGE CHANGE =        4917838.08         STORAGE CHANGE =        -147805.49
       --------------                             --------------
         LAND SURFACE =        3870170.36           LAND SURFACE =        -138668.80
            SOIL ZONE =        2476741.39              SOIL ZONE =         -20332.19
     UNSATURATED ZONE =        -713793.73       UNSATURATED ZONE =          11414.20
       SATURATED ZONE =        -715279.95         SATURATED ZONE =           -218.70

 OVERALL BUDGET ERROR =          -3059.79           BUDGET ERROR =              6.44


  PERCENT DISCREPANCY =             -0.02    PERCENT DISCREPANCY =              0.00



1
 SUMMARY VOLUMETRIC BUDGET FOR GSFLOW 
 DATE: 04 14 1981              CUMULATIVE TIME STEP:     196
 MODFLOW STRESS PERIOD      2     CURRENT TIME STEP:     196     ITERATIONS:       9

 -----------------------------------------------------------------------------------

   CUMULATIVE VOLUMES               L**3   RATES FOR THIS TIME STEP           L**3/T
   ------------------                      ------------------------

                                     IN                                         IN
                                     --                                         --
        PRECIPITATION =        1.6121D+07          PRECIPITATION =                  
           STREAMFLOW =                               STREAMFLOW =                  
     GW BOUNDARY FLOW =                         GW BOUNDARY FLOW =                  


                                    OUT                                        OUT
                                    ---                                        ---
   EVAPOTRANSPIRATION =        7156384.44     EVAPOTRANSPIRATION =         191911.71
           STREAMFLOW =        5149333.84             STREAMFLOW =          55195.45
     GW BOUNDARY FLOW =         142457.94       GW BOUNDARY FLOW =            730.39

   INFLOWS - OUTFLOWS =        3673291.40     INFLOWS - OUTFLOWS =        -247837.55
             --------                                   --------

 TOTAL STORAGE CHANGE =        3676343.11         STORAGE CHANGE =        -247837.13
       --------------                             --------------
         LAND SURFACE =        2621455.97           LAND SURFACE =        -253007.68
            SOIL ZONE =        2385190.22              SOIL ZONE =         -16845.05
     UNSATURATED ZONE =        -619973.00       UNSATURATED ZONE =          20167.03
       SATURATED ZONE =        -710330.09         SATURATED ZONE =           1848.57

 OVERALL BUDGET ERROR =          -3051.71           BUDGET ERROR =             -0.41


  PERCENT DISCREPANCY =             -0.02    PERCENT DISCREPANCY =             -0.00



1
 SUMMARY VOLUMETRIC BUDGET FOR GSFLOW 
 DATE: 04 21 1981              CUMULATIVE TIME STEP:     203
 MODFLOW STRESS PERIOD      2     CURRENT TIME STEP:     203     ITERATIONS:       9

 -----------------------------------------------------------------------------------

   CUMULATIVE VOLUMES               L**3   RATES FOR THIS TIME STEP           L**3/T
   ------------------                      ------------------------

                                     IN                                         IN
                                     --                                         --
        PRECIPITATION =        1.6310D+07          PRECIPITATION =                  
           STREAMFLOW =                               STREAMFLOW =                  
     GW BOUNDARY FLOW =                         GW BOUNDARY FLOW =                  


                                    OUT                                        OUT
                                    ---                                        ---
   EVAPOTRANSPIRATION =        8226326.84     EVAPOTRANSPIRATION =         151397.43
           STREAMFLOW =        5486870.75             STREAMFLOW =          45563.06
     GW BOUNDARY FLOW =         147565.08       GW BOUNDARY FLOW =            729.06

   INFLOWS - OUTFLOWS =        2449479.97     INFLOWS - OUTFLOWS =        -197689.55
             --------                                   --------

 TOTAL STORAGE CHANGE =        2452522.41         STORAGE CHANGE =        -197693.74
       --------------                             --------------
         LAND SURFACE =        1440926.25           LAND SURFACE =        -121359.42
            SOIL ZONE =        2205557.24              SOIL ZONE =         -96273.87
     UNSATURATED ZONE =        -499093.67       UNSATURATED ZONE =          17248.31
       SATURATED ZONE =        -694867.41         SATURATED ZONE =           2691.24

 OVERALL BUDGET ERROR =          -3042.44           BUDGET ERROR =              4.18


  PERCENT DISCREPANCY =             -0.02    PERCENT DISCREPANCY =              0.00



1
 SUMMARY VOLUMETRIC BUDGET FOR GSFLOW 
 DATE: 04 28 1981              CUMULATIVE TIME STEP:     210
 MODFLOW STRESS PERIOD      2     CURRENT TIME STEP:     210     ITERATIONS:       9

 -----------------------------------------------------------------------------------

   CUMULATIVE VOLUMES               L**3   RATES FOR THIS TIME STEP           L**3/T
   ------------------                      ------------------------

                                     IN                                         IN
                                     --                                         --
        PRECIPITATION =        1.6515D+07          PRECIPITATION =                  
           STREAMFLOW =                               STREAMFLOW =                  
     GW BOUNDARY FLOW =                         GW BOUNDARY FLOW =                  


                                    OUT                                        OUT
                                    ---                                        ---
   EVAPOTRANSPIRATION =        9466052.70     EVAPOTRANSPIRATION =         200832.64
           STREAMFLOW =        5698687.26             STREAMFLOW =          24694.77
     GW BOUNDARY FLOW =         152657.18       GW BOUNDARY FLOW =            726.33

   INFLOWS - OUTFLOWS =        1198035.75     INFLOWS - OUTFLOWS =        -226253.73
             --------                                   --------

 TOTAL STORAGE CHANGE =        1201053.03         STORAGE CHANGE =        -226255.36
       --------------                             --------------
         LAND SURFACE =         691530.95           LAND SURFACE =         -83509.90
            SOIL ZONE =        1694254.61              SOIL ZONE =        -138855.38
     UNSATURATED ZONE =        -496356.30       UNSATURATED ZONE =          -3829.29
       SATURATED ZONE =        -688376.23         SATURATED ZONE =            -60.80

 OVERALL BUDGET ERROR =          -3017.28           BUDGET ERROR =              1.62


  PERCENT DISCREPANCY =             -0.02    PERCENT DISCREPANCY =              0.00



1
 SUMMARY VOLUMETRIC BUDGET FOR GSFLOW 
 DATE: 05 05 1981              CUMULATIVE TIME STEP:     217
 MODFLOW STRESS PERIOD      2     CURRENT TIME STEP:     217     ITERATIONS:       9

 -----------------------------------------------------------------------------------

   CUMULATIVE VOLUMES               L**3   RATES FOR THIS TIME STEP           L**3/T
   ------------------                      ------------------------

                                     IN                                         IN
                                     --                                         --
        PRECIPITATION =        1.6515D+07          PRECIPITATION =                  
           STREAMFLOW =                               STREAMFLOW =                  
     GW BOUNDARY FLOW =                         GW BOUNDARY FLOW =                  


                                    OUT                                        OUT
                                    ---                                        ---
   EVAPOTRANSPIRATION =        1.0319D+07     EVAPOTRANSPIRATION =          47788.30
           STREAMFLOW =        5804572.13             STREAMFLOW =          10812.37
     GW BOUNDARY FLOW =         157732.73       GW BOUNDARY FLOW =            724.19

   INFLOWS - OUTFLOWS =         234542.06     INFLOWS - OUTFLOWS =         -59324.85
             --------                                   --------

 TOTAL STORAGE CHANGE =         237585.04         STORAGE CHANGE =         -59321.20
       --------------                             --------------
         LAND SURFACE =         347350.76           LAND SURFACE =         -17502.06
            SOIL ZONE =        1184764.24              SOIL ZONE =         -22940.45
     UNSATURATED ZONE =        -588800.35       UNSATURATED ZONE =         -15083.99
       SATURATED ZONE =        -705729.61         SATURATED ZONE =          -3794.70

 OVERALL BUDGET ERROR =          -3042.98           BUDGET ERROR =             -3.65


  PERCENT DISCREPANCY =             -0.02    PERCENT DISCREPANCY =             -0.01



1
 SUMMARY VOLUMETRIC BUDGET FOR GSFLOW 
 DATE: 05 12 1981              CUMULATIVE TIME STEP:     224
 MODFLOW STRESS PERIOD      2     CURRENT TIME STEP:     224     ITERATIONS:       9

 -----------------------------------------------------------------------------------

   CUMULATIVE VOLUMES               L**3   RATES FOR THIS TIME STEP           L**3/T
   ------------------                      ------------------------

                                     IN                                         IN
                                     --                                         --
        PRECIPITATION =        1.6515D+07          PRECIPITATION =                  
           STREAMFLOW =                               STREAMFLOW =                  
     GW BOUNDARY FLOW =                         GW BOUNDARY FLOW =                  


                                    OUT                                        OUT
                                    ---                                        ---
   EVAPOTRANSPIRATION =        1.0810D+07     EVAPOTRANSPIRATION =          91189.73
           STREAMFLOW =        5875322.21             STREAMFLOW =          10412.40
     GW BOUNDARY FLOW =         162798.33       GW BOUNDARY FLOW =            723.47

   INFLOWS - OUTFLOWS =        -332336.85     INFLOWS - OUTFLOWS =        -102325.60
             --------                                   --------

 TOTAL STORAGE CHANGE =        -329251.62         STORAGE CHANGE =        -102319.94
       --------------                             --------------
         LAND SURFACE =         198678.97           LAND SURFACE =         -25500.84
            SOIL ZONE =         901635.45              SOIL ZONE =         -57954.64
     UNSATURATED ZONE =        -690194.99       UNSATURATED ZONE =         -12944.50
       SATURATED ZONE =        -739371.06         SATURATED ZONE =          -5919.96

 OVERALL BUDGET ERROR =          -3085.23           BUDGET ERROR =             -5.66


  PERCENT DISCREPANCY =             -0.02    PERCENT DISCREPANCY =             -0.01



1
 SUMMARY VOLUMETRIC BUDGET FOR GSFLOW 
 DATE: 05 19 1981              CUMULATIVE TIME STEP:     231
 MODFLOW STRESS PERIOD      2     CURRENT TIME STEP:     231     ITERATIONS:       8

 -----------------------------------------------------------------------------------

   CUMULATIVE VOLUMES               L**3   RATES FOR THIS TIME STEP           L**3/T
   ------------------                      ------------------------

                                     IN                                         IN
                                     --                                         --
        PRECIPITATION =        1.7837D+07          PRECIPITATION =         169045.43
           STREAMFLOW =                               STREAMFLOW =                  
     GW BOUNDARY FLOW =                         GW BOUNDARY FLOW =                  


                                    OUT                                        OUT
                                    ---                                        ---
   EVAPOTRANSPIRATION =        1.1153D+07     EVAPOTRANSPIRATION =          32129.65
           STREAMFLOW =        6006108.10             STREAMFLOW =          27300.29
     GW BOUNDARY FLOW =         167865.65       GW BOUNDARY FLOW =            725.35

   INFLOWS - OUTFLOWS =         509943.99     INFLOWS - OUTFLOWS =         108890.13
             --------                                   --------

 TOTAL STORAGE CHANGE =         513068.23         STORAGE CHANGE =         108893.84
       --------------                             --------------
         LAND SURFACE =         167097.84           LAND SURFACE =           4534.24
            SOIL ZONE =        1882326.97              SOIL ZONE =         110134.49
     UNSATURATED ZONE =        -756917.77       UNSATURATED ZONE =             -9.54
       SATURATED ZONE =        -779438.82         SATURATED ZONE =          -5765.36

 OVERALL BUDGET ERROR =          -3124.24           BUDGET ERROR =             -3.71


  PERCENT DISCREPANCY =             -0.02    PERCENT DISCREPANCY =             -0.00



1
 SUMMARY VOLUMETRIC BUDGET FOR GSFLOW 
 DATE: 05 26 1981              CUMULATIVE TIME STEP:     238
 MODFLOW STRESS PERIOD      2     CURRENT TIME STEP:     238     ITERATIONS:       8

 -----------------------------------------------------------------------------------

   CUMULATIVE VOLUMES               L**3   RATES FOR THIS TIME STEP           L**3/T
   ------------------                      ------------------------

                                     IN                                         IN
                                     --                                         --
        PRECIPITATION =        1.8252D+07          PRECIPITATION =         284303.67
           STREAMFLOW =                               STREAMFLOW =                  
     GW BOUNDARY FLOW =                         GW BOUNDARY FLOW =                  


                                    OUT                                        OUT
                                    ---                                        ---
   EVAPOTRANSPIRATION =        1.1982D+07     EVAPOTRANSPIRATION =         133987.99
           STREAMFLOW =        6119503.07             STREAMFLOW =          19483.44
     GW BOUNDARY FLOW =         172935.81       GW BOUNDARY FLOW =            724.02

   INFLOWS - OUTFLOWS =         -21976.02     INFLOWS - OUTFLOWS =         130108.23
             --------                                   --------

 TOTAL STORAGE CHANGE =         -18818.48         STORAGE CHANGE =         130114.35
       --------------                             --------------
         LAND SURFACE =          96880.50           LAND SURFACE =          -7049.94
            SOIL ZONE =        1524882.65              SOIL ZONE =         154533.29
     UNSATURATED ZONE =        -813125.53       UNSATURATED ZONE =         -10457.29
       SATURATED ZONE =        -827456.09         SATURATED ZONE =          -6911.70

 OVERALL BUDGET ERROR =          -3157.54           BUDGET ERROR =             -6.13


  PERCENT DISCREPANCY =             -0.02    PERCENT DISCREPANCY =             -0.00



1
 SUMMARY VOLUMETRIC BUDGET FOR GSFLOW 
 DATE: 06 02 1981              CUMULATIVE TIME STEP:     245
 MODFLOW STRESS PERIOD      2     CURRENT TIME STEP:     245     ITERATIONS:      10

 -----------------------------------------------------------------------------------

   CUMULATIVE VOLUMES               L**3   RATES FOR THIS TIME STEP           L**3/T
   ------------------                      ------------------------

                                     IN                                         IN
                                     --                                         --
        PRECIPITATION =        1.8318D+07          PRECIPITATION =          50869.96
           STREAMFLOW =                               STREAMFLOW =                  
     GW BOUNDARY FLOW =                         GW BOUNDARY FLOW =                  


                                    OUT                                        OUT
                                    ---                                        ---
   EVAPOTRANSPIRATION =        1.2778D+07     EVAPOTRANSPIRATION =          69285.67
           STREAMFLOW =        6190188.35             STREAMFLOW =           7757.23
     GW BOUNDARY FLOW =         177998.36       GW BOUNDARY FLOW =            722.65

   INFLOWS - OUTFLOWS =        -827716.83     INFLOWS - OUTFLOWS =         -26895.58
             --------                                   --------

 TOTAL STORAGE CHANGE =        -824509.00         STORAGE CHANGE =         -26888.45
       --------------                             --------------
         LAND SURFACE =          61812.20           LAND SURFACE =          30830.75
            SOIL ZONE =         898895.99              SOIL ZONE =         -35652.57
     UNSATURATED ZONE =        -900028.66       UNSATURATED ZONE =         -13584.81
       SATURATED ZONE =        -885188.53         SATURATED ZONE =          -8481.82

 OVERALL BUDGET ERROR =          -3207.83           BUDGET ERROR =             -7.13


  PERCENT DISCREPANCY =             -0.02    PERCENT DISCREPANCY =             -0.01



1
 SUMMARY VOLUMETRIC BUDGET FOR GSFLOW 
 DATE: 06 09 1981              CUMULATIVE TIME STEP:     252
 MODFLOW STRESS PERIOD      2     CURRENT TIME STEP:     252     ITERATIONS:       9

 -----------------------------------------------------------------------------------

   CUMULATIVE VOLUMES               L**3   RATES FOR THIS TIME STEP           L**3/T
   ------------------                      ------------------------

                                     IN                                         IN
                                     --                                         --
        PRECIPITATION =        1.8318D+07          PRECIPITATION =                  
           STREAMFLOW =                               STREAMFLOW =                  
     GW BOUNDARY FLOW =                         GW BOUNDARY FLOW =                  


                                    OUT                                        OUT
                                    ---                                        ---
   EVAPOTRANSPIRATION =        1.3270D+07     EVAPOTRANSPIRATION =          51332.95
           STREAMFLOW =        6237929.41             STREAMFLOW =           6426.91
     GW BOUNDARY FLOW =         183054.27       GW BOUNDARY FLOW =            722.07

   INFLOWS - OUTFLOWS =       -1372632.48     INFLOWS - OUTFLOWS =         -58481.93
             --------                                   --------

 TOTAL STORAGE CHANGE =       -1369375.67         STORAGE CHANGE =         -58475.34
       --------------                             --------------
         LAND SURFACE =           8252.08           LAND SURFACE =          -1595.17
            SOIL ZONE =         563082.49              SOIL ZONE =         -34630.41
     UNSATURATED ZONE =        -994218.57       UNSATURATED ZONE =         -13447.22
       SATURATED ZONE =        -946491.68         SATURATED ZONE =          -8802.54

 OVERALL BUDGET ERROR =          -3256.81           BUDGET ERROR =             -6.59


  PERCENT DISCREPANCY =             -0.02    PERCENT DISCREPANCY =             -0.01



1
 SUMMARY VOLUMETRIC BUDGET FOR GSFLOW 
 DATE: 06 16 1981              CUMULATIVE TIME STEP:     259
 MODFLOW STRESS PERIOD      2     CURRENT TIME STEP:     259     ITERATIONS:      10

 -----------------------------------------------------------------------------------

   CUMULATIVE VOLUMES               L**3   RATES FOR THIS TIME STEP           L**3/T
   ------------------                      ------------------------

                                     IN                                         IN
                                     --                                         --
        PRECIPITATION =        1.8318D+07          PRECIPITATION =                  
           STREAMFLOW =                               STREAMFLOW =                  
     GW BOUNDARY FLOW =                         GW BOUNDARY FLOW =                  


                                    OUT                                        OUT
                                    ---                                        ---
   EVAPOTRANSPIRATION =        1.3461D+07     EVAPOTRANSPIRATION =          44886.45
           STREAMFLOW =        6281623.90             STREAMFLOW =           6167.68
     GW BOUNDARY FLOW =         188107.74       GW BOUNDARY FLOW =            721.84

   INFLOWS - OUTFLOWS =       -1612274.78     INFLOWS - OUTFLOWS =         -51775.97
             --------                                   --------

 TOTAL STORAGE CHANGE =       -1608971.47         STORAGE CHANGE =         -51769.40
       --------------                             --------------
         LAND SURFACE =           3425.60           LAND SURFACE =           -943.52
            SOIL ZONE =         482753.45              SOIL ZONE =         -28902.46
     UNSATURATED ZONE =       -1085515.97       UNSATURATED ZONE =         -12634.18
       SATURATED ZONE =       -1009634.55         SATURATED ZONE =          -9289.24

 OVERALL BUDGET ERROR =          -3303.31           BUDGET ERROR =             -6.57


  PERCENT DISCREPANCY =             -0.02    PERCENT DISCREPANCY =             -0.01



1
 SUMMARY VOLUMETRIC BUDGET FOR GSFLOW 
 DATE: 06 23 1981              CUMULATIVE TIME STEP:     266
 MODFLOW STRESS PERIOD      2     CURRENT TIME STEP:     266     ITERATIONS:       9

 -----------------------------------------------------------------------------------

   CUMULATIVE VOLUMES               L**3   RATES FOR THIS TIME STEP           L**3/T
   ------------------                      ------------------------

                                     IN                                         IN
                                     --                                         --
        PRECIPITATION =        1.8318D+07          PRECIPITATION =                  
           STREAMFLOW =                               STREAMFLOW =                  
     GW BOUNDARY FLOW =                         GW BOUNDARY FLOW =                  


                                    OUT                                        OUT
                                    ---                                        ---
   EVAPOTRANSPIRATION =        1.3758D+07     EVAPOTRANSPIRATION =          34722.03
           STREAMFLOW =        6323786.06             STREAMFLOW =           5947.25
     GW BOUNDARY FLOW =         193159.76       GW BOUNDARY FLOW =            721.62

   INFLOWS - OUTFLOWS =       -1956389.59     INFLOWS - OUTFLOWS =         -41390.90
             --------                                   --------

 TOTAL STORAGE CHANGE =       -1953040.29         STORAGE CHANGE =         -41384.24
       --------------                             --------------
         LAND SURFACE =                             LAND SURFACE =                  
            SOIL ZONE =         294397.06              SOIL ZONE =         -19752.35
     UNSATURATED ZONE =       -1169888.17       UNSATURATED ZONE =         -11537.28
       SATURATED ZONE =       -1077549.18         SATURATED ZONE =         -10094.60

 OVERALL BUDGET ERROR =          -3349.30           BUDGET ERROR =             -6.66


  PERCENT DISCREPANCY =             -0.02    PERCENT DISCREPANCY =             -0.02



1
 SUMMARY VOLUMETRIC BUDGET FOR GSFLOW 
 DATE: 06 30 1981              CUMULATIVE TIME STEP:     273
 MODFLOW STRESS PERIOD      2     CURRENT TIME STEP:     273     ITERATIONS:       7

 -----------------------------------------------------------------------------------

   CUMULATIVE VOLUMES               L**3   RATES FOR THIS TIME STEP           L**3/T
   ------------------                      ------------------------

                                     IN                                         IN
[...]
     GW BOUNDARY FLOW =        4176783.49       GW BOUNDARY FLOW =            725.86

   INFLOWS - OUTFLOWS =       -7139751.58     INFLOWS - OUTFLOWS =         -53434.93
             --------                                   --------

 TOTAL STORAGE CHANGE =       -7117822.16         STORAGE CHANGE =         -53432.90
       --------------                             --------------
         LAND SURFACE =          84495.33           LAND SURFACE =          -4962.88
            SOIL ZONE =         277718.71              SOIL ZONE =         -26628.70
     UNSATURATED ZONE =        4995155.29       UNSATURATED ZONE =         -28469.62
       SATURATED ZONE =       -1.2475D+07         SATURATED ZONE =           6628.30

 OVERALL BUDGET ERROR =         -21929.42           BUDGET ERROR =             -2.02


  PERCENT DISCREPANCY =             -0.00    PERCENT DISCREPANCY =             -0.00



1
 SUMMARY VOLUMETRIC BUDGET FOR GSFLOW 
 DATE: 07 30 1996              CUMULATIVE TIME STEP:    5782
 MODFLOW STRESS PERIOD      2     CURRENT TIME STEP:    5782     ITERATIONS:       9

 -----------------------------------------------------------------------------------

   CUMULATIVE VOLUMES               L**3   RATES FOR THIS TIME STEP           L**3/T
   ------------------                      ------------------------

                                     IN                                         IN
                                     --                                         --
        PRECIPITATION =        4.6511D+08          PRECIPITATION =                  
           STREAMFLOW =                               STREAMFLOW =                  
     GW BOUNDARY FLOW =                         GW BOUNDARY FLOW =                  


                                    OUT                                        OUT
                                    ---                                        ---
   EVAPOTRANSPIRATION =        2.8402D+08     EVAPOTRANSPIRATION =          30860.34
           STREAMFLOW =        1.8432D+08             STREAMFLOW =           6909.61
     GW BOUNDARY FLOW =        4181862.58       GW BOUNDARY FLOW =            725.47

   INFLOWS - OUTFLOWS =       -7413888.28     INFLOWS - OUTFLOWS =         -38495.41
             --------                                   --------

 TOTAL STORAGE CHANGE =       -7391951.86         STORAGE CHANGE =         -38498.02
       --------------                             --------------
         LAND SURFACE =          55405.90           LAND SURFACE =          -3487.93
            SOIL ZONE =         184117.59              SOIL ZONE =         -13515.22
     UNSATURATED ZONE =        4802656.79       UNSATURATED ZONE =         -27277.62
       SATURATED ZONE =       -1.2434D+07         SATURATED ZONE =           5782.74

 OVERALL BUDGET ERROR =         -21936.42           BUDGET ERROR =              2.61


  PERCENT DISCREPANCY =             -0.00    PERCENT DISCREPANCY =              0.01



1
 SUMMARY VOLUMETRIC BUDGET FOR GSFLOW 
 DATE: 08 06 1996              CUMULATIVE TIME STEP:    5789
 MODFLOW STRESS PERIOD      2     CURRENT TIME STEP:    5789     ITERATIONS:      10

 -----------------------------------------------------------------------------------

   CUMULATIVE VOLUMES               L**3   RATES FOR THIS TIME STEP           L**3/T
   ------------------                      ------------------------

                                     IN                                         IN
                                     --                                         --
        PRECIPITATION =        4.6511D+08          PRECIPITATION =                  
           STREAMFLOW =                               STREAMFLOW =                  
     GW BOUNDARY FLOW =                         GW BOUNDARY FLOW =                  


                                    OUT                                        OUT
                                    ---                                        ---
   EVAPOTRANSPIRATION =        2.8417D+08     EVAPOTRANSPIRATION =          21564.19
           STREAMFLOW =        1.8437D+08             STREAMFLOW =           6695.38
     GW BOUNDARY FLOW =        4186940.22       GW BOUNDARY FLOW =            725.29

   INFLOWS - OUTFLOWS =       -7613464.83     INFLOWS - OUTFLOWS =         -28984.87
             --------                                   --------

 TOTAL STORAGE CHANGE =       -7591514.81         STORAGE CHANGE =         -28982.95
       --------------                             --------------
         LAND SURFACE =          37062.04           LAND SURFACE =          -2253.66
            SOIL ZONE =         152038.18              SOIL ZONE =          -5559.43
     UNSATURATED ZONE =        4613983.47       UNSATURATED ZONE =         -26599.48
       SATURATED ZONE =       -1.2395D+07         SATURATED ZONE =           5429.62

 OVERALL BUDGET ERROR =         -21950.02           BUDGET ERROR =             -1.92


  PERCENT DISCREPANCY =             -0.00    PERCENT DISCREPANCY =             -0.01



1
 SUMMARY VOLUMETRIC BUDGET FOR GSFLOW 
 DATE: 08 13 1996              CUMULATIVE TIME STEP:    5796
 MODFLOW STRESS PERIOD      2     CURRENT TIME STEP:    5796     ITERATIONS:      11

 -----------------------------------------------------------------------------------

   CUMULATIVE VOLUMES               L**3   RATES FOR THIS TIME STEP           L**3/T
   ------------------                      ------------------------

                                     IN                                         IN
                                     --                                         --
        PRECIPITATION =        4.6531D+08          PRECIPITATION =          54454.08
           STREAMFLOW =                               STREAMFLOW =                  
     GW BOUNDARY FLOW =                         GW BOUNDARY FLOW =                  


                                    OUT                                        OUT
                                    ---                                        ---
   EVAPOTRANSPIRATION =        2.8435D+08     EVAPOTRANSPIRATION =          32647.50
           STREAMFLOW =        1.8442D+08             STREAMFLOW =           7897.69
     GW BOUNDARY FLOW =        4192016.53       GW BOUNDARY FLOW =            725.20

   INFLOWS - OUTFLOWS =       -7641778.79     INFLOWS - OUTFLOWS =          13183.69
             --------                                   --------

 TOTAL STORAGE CHANGE =       -7619822.04         STORAGE CHANGE =          13188.67
       --------------                             --------------
         LAND SURFACE =          53162.52           LAND SURFACE =          -2312.39
            SOIL ZONE =         254310.77              SOIL ZONE =          36265.90
     UNSATURATED ZONE =        4436535.84       UNSATURATED ZONE =         -24704.46
       SATURATED ZONE =       -1.2364D+07         SATURATED ZONE =           3939.62

 OVERALL BUDGET ERROR =         -21956.74           BUDGET ERROR =             -4.97


  PERCENT DISCREPANCY =             -0.00    PERCENT DISCREPANCY =             -0.01



1
 SUMMARY VOLUMETRIC BUDGET FOR GSFLOW 
 DATE: 08 20 1996              CUMULATIVE TIME STEP:    5803
 MODFLOW STRESS PERIOD      2     CURRENT TIME STEP:    5803     ITERATIONS:       9

 -----------------------------------------------------------------------------------

   CUMULATIVE VOLUMES               L**3   RATES FOR THIS TIME STEP           L**3/T
   ------------------                      ------------------------

                                     IN                                         IN
                                     --                                         --
        PRECIPITATION =        4.6531D+08          PRECIPITATION =                  
           STREAMFLOW =                               STREAMFLOW =                  
     GW BOUNDARY FLOW =                         GW BOUNDARY FLOW =                  


                                    OUT                                        OUT
                                    ---                                        ---
   EVAPOTRANSPIRATION =        2.8454D+08     EVAPOTRANSPIRATION =          18011.98
           STREAMFLOW =        1.8446D+08             STREAMFLOW =           6486.23
     GW BOUNDARY FLOW =        4197090.87       GW BOUNDARY FLOW =            724.69

   INFLOWS - OUTFLOWS =       -7892072.60     INFLOWS - OUTFLOWS =         -25222.90
             --------                                   --------

 TOTAL STORAGE CHANGE =       -7870100.30         STORAGE CHANGE =         -25223.52
       --------------                             --------------
         LAND SURFACE =           6921.38           LAND SURFACE =          -1297.31
            SOIL ZONE =         195359.04              SOIL ZONE =          -3310.78
     UNSATURATED ZONE =        4266854.29       UNSATURATED ZONE =         -23793.79
       SATURATED ZONE =       -1.2339D+07         SATURATED ZONE =           3178.36

 OVERALL BUDGET ERROR =         -21972.30           BUDGET ERROR =              0.62


  PERCENT DISCREPANCY =             -0.00    PERCENT DISCREPANCY =              0.00



1
 SUMMARY VOLUMETRIC BUDGET FOR GSFLOW 
 DATE: 08 27 1996              CUMULATIVE TIME STEP:    5810
 MODFLOW STRESS PERIOD      2     CURRENT TIME STEP:    5810     ITERATIONS:       9

 -----------------------------------------------------------------------------------

   CUMULATIVE VOLUMES               L**3   RATES FOR THIS TIME STEP           L**3/T
   ------------------                      ------------------------

                                     IN                                         IN
                                     --                                         --
        PRECIPITATION =        4.6531D+08          PRECIPITATION =                  
           STREAMFLOW =                               STREAMFLOW =                  
     GW BOUNDARY FLOW =                         GW BOUNDARY FLOW =                  


                                    OUT                                        OUT
                                    ---                                        ---
   EVAPOTRANSPIRATION =        2.8468D+08     EVAPOTRANSPIRATION =          15664.56
           STREAMFLOW =        1.8451D+08             STREAMFLOW =           6319.87
     GW BOUNDARY FLOW =        4202161.91       GW BOUNDARY FLOW =            724.25

   INFLOWS - OUTFLOWS =       -8082217.82     INFLOWS - OUTFLOWS =         -22708.69
             --------                                   --------

 TOTAL STORAGE CHANGE =       -8060246.69         STORAGE CHANGE =         -22709.17
       --------------                             --------------
         LAND SURFACE =           1243.96           LAND SURFACE =           -271.65
            SOIL ZONE =         154144.84              SOIL ZONE =          -2081.18
     UNSATURATED ZONE =        4105692.41       UNSATURATED ZONE =         -22852.45
       SATURATED ZONE =       -1.2321D+07         SATURATED ZONE =           2496.11

 OVERALL BUDGET ERROR =         -21971.13           BUDGET ERROR =              0.48


  PERCENT DISCREPANCY =             -0.00    PERCENT DISCREPANCY =              0.00



1
 SUMMARY VOLUMETRIC BUDGET FOR GSFLOW 
 DATE: 09 03 1996              CUMULATIVE TIME STEP:    5817
 MODFLOW STRESS PERIOD      2     CURRENT TIME STEP:    5817     ITERATIONS:       8

 -----------------------------------------------------------------------------------

   CUMULATIVE VOLUMES               L**3   RATES FOR THIS TIME STEP           L**3/T
   ------------------                      ------------------------

                                     IN                                         IN
                                     --                                         --
        PRECIPITATION =        4.6531D+08          PRECIPITATION =                  
           STREAMFLOW =                               STREAMFLOW =                  
     GW BOUNDARY FLOW =                         GW BOUNDARY FLOW =                  


                                    OUT                                        OUT
                                    ---                                        ---
   EVAPOTRANSPIRATION =        2.8479D+08     EVAPOTRANSPIRATION =          12480.12
           STREAMFLOW =        1.8455D+08             STREAMFLOW =           6213.58
     GW BOUNDARY FLOW =        4207229.80       GW BOUNDARY FLOW =            723.80

   INFLOWS - OUTFLOWS =       -8237684.39     INFLOWS - OUTFLOWS =         -19417.49
             --------                                   --------

 TOTAL STORAGE CHANGE =       -8215725.12         STORAGE CHANGE =         -19423.27
       --------------                             --------------
         LAND SURFACE =            583.76           LAND SURFACE =            -75.05
            SOIL ZONE =         140868.79              SOIL ZONE =            774.85
     UNSATURATED ZONE =        3950321.41       UNSATURATED ZONE =         -21827.98
       SATURATED ZONE =       -1.2307D+07         SATURATED ZONE =           1704.91

 OVERALL BUDGET ERROR =         -21959.27           BUDGET ERROR =              5.78


  PERCENT DISCREPANCY =             -0.00    PERCENT DISCREPANCY =              0.03



1
 SUMMARY VOLUMETRIC BUDGET FOR GSFLOW 
 DATE: 09 10 1996              CUMULATIVE TIME STEP:    5824
 MODFLOW STRESS PERIOD      2     CURRENT TIME STEP:    5824     ITERATIONS:       8

 -----------------------------------------------------------------------------------

   CUMULATIVE VOLUMES               L**3   RATES FOR THIS TIME STEP           L**3/T
   ------------------                      ------------------------

                                     IN                                         IN
                                     --                                         --
        PRECIPITATION =        4.6531D+08          PRECIPITATION =                  
           STREAMFLOW =                               STREAMFLOW =                  
     GW BOUNDARY FLOW =                         GW BOUNDARY FLOW =                  


                                    OUT                                        OUT
                                    ---                                        ---
   EVAPOTRANSPIRATION =        2.8488D+08     EVAPOTRANSPIRATION =          13706.82
           STREAMFLOW =        1.8460D+08             STREAMFLOW =           6117.88
     GW BOUNDARY FLOW =        4212294.64       GW BOUNDARY FLOW =            723.36

   INFLOWS - OUTFLOWS =       -8372389.95     INFLOWS - OUTFLOWS =         -20548.06
             --------                                   --------

 TOTAL STORAGE CHANGE =       -8350465.09         STORAGE CHANGE =         -20552.29
       --------------                             --------------
         LAND SURFACE =            141.35           LAND SURFACE =            -69.28
            SOIL ZONE =         146515.97              SOIL ZONE =           -587.72
     UNSATURATED ZONE =        3802200.70       UNSATURATED ZONE =         -20622.50
       SATURATED ZONE =       -1.2299D+07         SATURATED ZONE =            727.21

 OVERALL BUDGET ERROR =         -21924.86           BUDGET ERROR =              4.24


  PERCENT DISCREPANCY =             -0.00    PERCENT DISCREPANCY =              0.02



1
 SUMMARY VOLUMETRIC BUDGET FOR GSFLOW 
 DATE: 09 17 1996              CUMULATIVE TIME STEP:    5831
 MODFLOW STRESS PERIOD      2     CURRENT TIME STEP:    5831     ITERATIONS:      11

 -----------------------------------------------------------------------------------

   CUMULATIVE VOLUMES               L**3   RATES FOR THIS TIME STEP           L**3/T
   ------------------                      ------------------------

                                     IN                                         IN
                                     --                                         --
        PRECIPITATION =        4.6637D+08          PRECIPITATION =                  
           STREAMFLOW =                               STREAMFLOW =                  
     GW BOUNDARY FLOW =                         GW BOUNDARY FLOW =                  


                                    OUT                                        OUT
                                    ---                                        ---
   EVAPOTRANSPIRATION =        2.8505D+08     EVAPOTRANSPIRATION =          58054.02
           STREAMFLOW =        1.8466D+08             STREAMFLOW =          10259.27
     GW BOUNDARY FLOW =        4217359.08       GW BOUNDARY FLOW =            723.95

   INFLOWS - OUTFLOWS =       -7567796.77     INFLOWS - OUTFLOWS =         -69037.24
             --------                                   --------

 TOTAL STORAGE CHANGE =       -7545884.82         STORAGE CHANGE =         -69032.79
       --------------                             --------------
         LAND SURFACE =           3348.24           LAND SURFACE =         -35098.95
            SOIL ZONE =        1084304.07              SOIL ZONE =         -14261.99
     UNSATURATED ZONE =        3660141.51       UNSATURATED ZONE =         -19955.47
       SATURATED ZONE =       -1.2294D+07         SATURATED ZONE =            283.62

 OVERALL BUDGET ERROR =         -21911.95           BUDGET ERROR =             -4.45


  PERCENT DISCREPANCY =             -0.00    PERCENT DISCREPANCY =             -0.01



1
 SUMMARY VOLUMETRIC BUDGET FOR GSFLOW 
 DATE: 09 24 1996              CUMULATIVE TIME STEP:    5838
 MODFLOW STRESS PERIOD      2     CURRENT TIME STEP:    5838     ITERATIONS:      10

 -----------------------------------------------------------------------------------

   CUMULATIVE VOLUMES               L**3   RATES FOR THIS TIME STEP           L**3/T
   ------------------                      ------------------------

                                     IN                                         IN
                                     --                                         --
        PRECIPITATION =        4.6637D+08          PRECIPITATION =                  
           STREAMFLOW =                               STREAMFLOW =                  
     GW BOUNDARY FLOW =                         GW BOUNDARY FLOW =                  


                                    OUT                                        OUT
                                    ---                                        ---
   EVAPOTRANSPIRATION =        2.8553D+08     EVAPOTRANSPIRATION =          54376.07
           STREAMFLOW =        1.8472D+08             STREAMFLOW =           6730.01
     GW BOUNDARY FLOW =        4222421.95       GW BOUNDARY FLOW =            722.87

   INFLOWS - OUTFLOWS =       -8099719.46     INFLOWS - OUTFLOWS =         -61828.95
             --------                                   --------

 TOTAL STORAGE CHANGE =       -8077780.46         STORAGE CHANGE =         -61825.64
       --------------                             --------------
         LAND SURFACE =                             LAND SURFACE =                  
            SOIL ZONE =         692711.88              SOIL ZONE =         -42342.54
     UNSATURATED ZONE =        3524132.83       UNSATURATED ZONE =         -19021.42
       SATURATED ZONE =       -1.2295D+07         SATURATED ZONE =           -461.68

 OVERALL BUDGET ERROR =         -21938.99           BUDGET ERROR =             -3.31


  PERCENT DISCREPANCY =             -0.00    PERCENT DISCREPANCY =             -0.01



 Number of time steps:   5844;  Number of non-convergence:   0
 MF iterations:         45409;  SZ iterations:           45409
 Average MF iterations:  7.77;  Average SZ iterations:    7.77
 Maximum MF iterations:    24;  Maximum SZ iterations:      24

