1
 SUMMARY VOLUMETRIC BUDGET FOR GSFLOW 
 DATE: 10 07 1980              CUMULATIVE TIME STEP:       7
 MODFLOW STRESS PERIOD      2     CURRENT TIME STEP:       7     ITERATIONS:       4

 -----------------------------------------------------------------------------------

   CUMULATIVE VOLUMES               L**3   RATES FOR THIS TIME STEP           L**3/T
   ------------------                      ------------------------

                                     IN                                         IN
                                     --                                         --
        PRECIPITATION =                            PRECIPITATION =                  
           STREAMFLOW =                               STREAMFLOW =                  
     GW BOUNDARY FLOW =                         GW BOUNDARY FLOW =                  


                                    OUT                                        OUT
                                    ---                                        ---
   EVAPOTRANSPIRATION =          63052.02     EVAPOTRANSPIRATION =           9234.40
           STREAMFLOW =          43081.79             STREAMFLOW =           6083.36
     GW BOUNDARY FLOW =           5067.91       GW BOUNDARY FLOW =            723.89

   INFLOWS - OUTFLOWS =        -111201.71     INFLOWS - OUTFLOWS =         -16041.66
             --------                                   --------

 TOTAL STORAGE CHANGE =        -110967.58         STORAGE CHANGE =         -16007.41
       --------------                             --------------
         LAND SURFACE =                             LAND SURFACE =                  
            SOIL ZONE =          47393.18              SOIL ZONE =           6452.18
     UNSATURATED ZONE =        -144965.30       UNSATURATED ZONE =         -20382.35
       SATURATED ZONE =         -13395.46         SATURATED ZONE =          -2077.23

 OVERALL BUDGET ERROR =           -234.13           BUDGET ERROR =            -34.25


  PERCENT DISCREPANCY =             -0.21    PERCENT DISCREPANCY =             -0.21



1
 SUMMARY VOLUMETRIC BUDGET FOR GSFLOW 
 DATE: 10 14 1980              CUMULATIVE TIME STEP:      14
 MODFLOW STRESS PERIOD      2     CURRENT TIME STEP:      14     ITERATIONS:       4

 -----------------------------------------------------------------------------------

   CUMULATIVE VOLUMES               L**3   RATES FOR THIS TIME STEP           L**3/T
   ------------------                      ------------------------

                                     IN                                         IN
                                     --                                         --
        PRECIPITATION =         650779.83          PRECIPITATION =         164754.40
           STREAMFLOW =                               STREAMFLOW =                  
     GW BOUNDARY FLOW =                         GW BOUNDARY FLOW =                  


                                    OUT                                        OUT
                                    ---                                        ---
   EVAPOTRANSPIRATION =         147619.36     EVAPOTRANSPIRATION =           7972.95
           STREAMFLOW =          92731.15             STREAMFLOW =           7469.23
     GW BOUNDARY FLOW =          10135.61       GW BOUNDARY FLOW =            724.11

   INFLOWS - OUTFLOWS =         400293.72     INFLOWS - OUTFLOWS =         148588.10
             --------                                   --------

 TOTAL STORAGE CHANGE =         400762.07         STORAGE CHANGE =         148623.34
       --------------                             --------------
         LAND SURFACE =         277689.24           LAND SURFACE =         136623.45
            SOIL ZONE =         436723.84              SOIL ZONE =          34108.04
     UNSATURATED ZONE =        -284617.09       UNSATURATED ZONE =         -19599.40
       SATURATED ZONE =         -29033.92         SATURATED ZONE =          -2508.74

 OVERALL BUDGET ERROR =           -468.35           BUDGET ERROR =            -35.24


  PERCENT DISCREPANCY =             -0.07    PERCENT DISCREPANCY =             -0.02



1
 SUMMARY VOLUMETRIC BUDGET FOR GSFLOW 
 DATE: 10 21 1980              CUMULATIVE TIME STEP:      21
 MODFLOW STRESS PERIOD      2     CURRENT TIME STEP:      21     ITERATIONS:       5

 -----------------------------------------------------------------------------------

   CUMULATIVE VOLUMES               L**3   RATES FOR THIS TIME STEP           L**3/T
   ------------------                      ------------------------

                                     IN                                         IN
                                     --                                         --
        PRECIPITATION =         733157.03          PRECIPITATION =                  
           STREAMFLOW =                               STREAMFLOW =                  
     GW BOUNDARY FLOW =                         GW BOUNDARY FLOW =                  


                                    OUT                                        OUT
                                    ---                                        ---
   EVAPOTRANSPIRATION =         375888.87     EVAPOTRANSPIRATION =          36804.76
           STREAMFLOW =         144621.09             STREAMFLOW =           7058.83
     GW BOUNDARY FLOW =          15203.74       GW BOUNDARY FLOW =            723.94

   INFLOWS - OUTFLOWS =         197443.32     INFLOWS - OUTFLOWS =         -44587.54
             --------                                   --------

 TOTAL STORAGE CHANGE =         198132.04         STORAGE CHANGE =         -44557.34
       --------------                             --------------
         LAND SURFACE =           2250.88           LAND SURFACE =          -3153.72
            SOIL ZONE =         662992.28              SOIL ZONE =         -19494.80
     UNSATURATED ZONE =        -418520.85       UNSATURATED ZONE =         -18753.74
       SATURATED ZONE =         -48590.27         SATURATED ZONE =          -3155.07

 OVERALL BUDGET ERROR =           -688.72           BUDGET ERROR =            -30.20


  PERCENT DISCREPANCY =             -0.09    PERCENT DISCREPANCY =             -0.07



1
 SUMMARY VOLUMETRIC BUDGET FOR GSFLOW 
 DATE: 10 28 1980              CUMULATIVE TIME STEP:      28
 MODFLOW STRESS PERIOD      2     CURRENT TIME STEP:      28     ITERATIONS:       5

 -----------------------------------------------------------------------------------

   CUMULATIVE VOLUMES               L**3   RATES FOR THIS TIME STEP           L**3/T
   ------------------                      ------------------------

                                     IN                                         IN
                                     --                                         --
        PRECIPITATION =        1070903.53          PRECIPITATION =                  
           STREAMFLOW =                               STREAMFLOW =                  
     GW BOUNDARY FLOW =                         GW BOUNDARY FLOW =                  


                                    OUT                                        OUT
                                    ---                                        ---
   EVAPOTRANSPIRATION =         556723.34     EVAPOTRANSPIRATION =          23594.60
           STREAMFLOW =         199389.07             STREAMFLOW =           8003.25
     GW BOUNDARY FLOW =          20271.41       GW BOUNDARY FLOW =            724.02

   INFLOWS - OUTFLOWS =         294519.71     INFLOWS - OUTFLOWS =         -32321.87
             --------                                   --------

 TOTAL STORAGE CHANGE =         295417.59         STORAGE CHANGE =         -32292.03
       --------------                             --------------
         LAND SURFACE =          24619.51           LAND SURFACE =         -30948.99
            SOIL ZONE =         889804.73              SOIL ZONE =          20239.30
     UNSATURATED ZONE =        -546588.13       UNSATURATED ZONE =         -17916.52
       SATURATED ZONE =         -72418.52         SATURATED ZONE =          -3665.82

 OVERALL BUDGET ERROR =           -897.88           BUDGET ERROR =            -29.85


  PERCENT DISCREPANCY =             -0.08    PERCENT DISCREPANCY =             -0.09



1
 SUMMARY VOLUMETRIC BUDGET FOR GSFLOW 
 DATE: 11 04 1980              CUMULATIVE TIME STEP:      35
 MODFLOW STRESS PERIOD      2     CURRENT TIME STEP:      35     ITERATIONS:       6

 -----------------------------------------------------------------------------------

   CUMULATIVE VOLUMES               L**3   RATES FOR THIS TIME STEP           L**3/T
   ------------------                      ------------------------

                                     IN                                         IN
                                     --                                         --
        PRECIPITATION =        1070903.53          PRECIPITATION =                  
           STREAMFLOW =                               STREAMFLOW =                  
     GW BOUNDARY FLOW =                         GW BOUNDARY FLOW =                  


                                    OUT                                        OUT
                                    ---                                        ---
   EVAPOTRANSPIRATION =         854398.20     EVAPOTRANSPIRATION =          38393.05
           STREAMFLOW =         252107.46             STREAMFLOW =           7055.64
     GW BOUNDARY FLOW =          25338.71       GW BOUNDARY FLOW =            723.81

   INFLOWS - OUTFLOWS =         -60940.84     INFLOWS - OUTFLOWS =         -46172.50
             --------                                   --------

 TOTAL STORAGE CHANGE =         -59842.81         STORAGE CHANGE =         -46146.08
       --------------                             --------------
         LAND SURFACE =                             LAND SURFACE =                  
            SOIL ZONE =         710477.68              SOIL ZONE =         -24522.38
     UNSATURATED ZONE =        -669479.92       UNSATURATED ZONE =         -17299.71
       SATURATED ZONE =        -100840.57         SATURATED ZONE =          -4324.00

 OVERALL BUDGET ERROR =          -1098.03           BUDGET ERROR =            -26.41


  PERCENT DISCREPANCY =             -0.10    PERCENT DISCREPANCY =             -0.06



1
 SUMMARY VOLUMETRIC BUDGET FOR GSFLOW 
 DATE: 11 11 1980              CUMULATIVE TIME STEP:      42
 MODFLOW STRESS PERIOD      2     CURRENT TIME STEP:      42     ITERATIONS:       5

 -----------------------------------------------------------------------------------

   CUMULATIVE VOLUMES               L**3   RATES FOR THIS TIME STEP           L**3/T
   ------------------                      ------------------------

                                     IN                                         IN
                                     --                                         --
        PRECIPITATION =        1573762.54          PRECIPITATION =         255182.19
           STREAMFLOW =                               STREAMFLOW =                  
     GW BOUNDARY FLOW =                         GW BOUNDARY FLOW =                  


                                    OUT                                        OUT
                                    ---                                        ---
   EVAPOTRANSPIRATION =        1065568.61     EVAPOTRANSPIRATION =          14936.69
           STREAMFLOW =         308219.51             STREAMFLOW =          10758.41
     GW BOUNDARY FLOW =          30405.65       GW BOUNDARY FLOW =            724.07

   INFLOWS - OUTFLOWS =         169568.78     INFLOWS - OUTFLOWS =         228763.01
             --------                                   --------

 TOTAL STORAGE CHANGE =         170868.03         STORAGE CHANGE =         228791.34
       --------------                             --------------
         LAND SURFACE =          78612.95           LAND SURFACE =          76659.87
            SOIL ZONE =        1011647.35              SOIL ZONE =         172703.55
     UNSATURATED ZONE =        -787591.94       UNSATURATED ZONE =         -16457.37
       SATURATED ZONE =        -131800.33         SATURATED ZONE =          -4114.70

 OVERALL BUDGET ERROR =          -1299.25           BUDGET ERROR =            -28.33


  PERCENT DISCREPANCY =             -0.08    PERCENT DISCREPANCY =             -0.01



1
 SUMMARY VOLUMETRIC BUDGET FOR GSFLOW 
 DATE: 11 18 1980              CUMULATIVE TIME STEP:      49
 MODFLOW STRESS PERIOD      2     CURRENT TIME STEP:      49     ITERATIONS:       5

 -----------------------------------------------------------------------------------

   CUMULATIVE VOLUMES               L**3   RATES FOR THIS TIME STEP           L**3/T
   ------------------                      ------------------------

                                     IN                                         IN
                                     --                                         --
        PRECIPITATION =        1573762.54          PRECIPITATION =                  
           STREAMFLOW =                               STREAMFLOW =                  
     GW BOUNDARY FLOW =                         GW BOUNDARY FLOW =                  


                                    OUT                                        OUT
                                    ---                                        ---
   EVAPOTRANSPIRATION =        1154160.90     EVAPOTRANSPIRATION =          16737.71
           STREAMFLOW =         371530.91             STREAMFLOW =           9404.65
     GW BOUNDARY FLOW =          35474.19       GW BOUNDARY FLOW =            724.11

   INFLOWS - OUTFLOWS =          12596.55     INFLOWS - OUTFLOWS =         -26866.48
             --------                                   --------

 TOTAL STORAGE CHANGE =          14091.40         STORAGE CHANGE =         -26838.85
       --------------                             --------------
         LAND SURFACE =           8654.86           LAND SURFACE =          -6203.23
            SOIL ZONE =        1071926.61              SOIL ZONE =            281.49
     UNSATURATED ZONE =        -900931.35       UNSATURATED ZONE =         -15938.40
       SATURATED ZONE =        -165558.72         SATURATED ZONE =          -4978.71

 OVERALL BUDGET ERROR =          -1494.85           BUDGET ERROR =            -27.63


  PERCENT DISCREPANCY =             -0.09    PERCENT DISCREPANCY =             -0.10



1
 SUMMARY VOLUMETRIC BUDGET FOR GSFLOW 
 DATE: 11 25 1980              CUMULATIVE TIME STEP:      56
 MODFLOW STRESS PERIOD      2     CURRENT TIME STEP:      56     ITERATIONS:       6

 -----------------------------------------------------------------------------------

   CUMULATIVE VOLUMES               L**3   RATES FOR THIS TIME STEP           L**3/T
   ------------------                      ------------------------

                                     IN                                         IN
                                     --                                         --
        PRECIPITATION =        1648816.13          PRECIPITATION =                  
           STREAMFLOW =                               STREAMFLOW =                  
     GW BOUNDARY FLOW =                         GW BOUNDARY FLOW =                  


                                    OUT                                        OUT
                                    ---                                        ---
   EVAPOTRANSPIRATION =        1229747.43     EVAPOTRANSPIRATION =           8792.74
           STREAMFLOW =         438835.62             STREAMFLOW =           9929.62
     GW BOUNDARY FLOW =          40543.26       GW BOUNDARY FLOW =            724.19

   INFLOWS - OUTFLOWS =         -60310.18     INFLOWS - OUTFLOWS =         -19446.56
             --------                                   --------

 TOTAL STORAGE CHANGE =         -58631.97         STORAGE CHANGE =         -19423.60
       --------------                             --------------
         LAND SURFACE =          55166.83           LAND SURFACE =          -8744.58
            SOIL ZONE =        1098907.39              SOIL ZONE =          10141.15
     UNSATURATED ZONE =       -1010096.04       UNSATURATED ZONE =         -15333.01
       SATURATED ZONE =        -202610.15         SATURATED ZONE =          -5487.17

 OVERALL BUDGET ERROR =          -1678.21           BUDGET ERROR =            -22.96


  PERCENT DISCREPANCY =             -0.10    PERCENT DISCREPANCY =             -0.12



1
 SUMMARY VOLUMETRIC BUDGET FOR GSFLOW 
 DATE: 12 02 1980              CUMULATIVE TIME STEP:      63
 MODFLOW STRESS PERIOD      2     CURRENT TIME STEP:      63     ITERATIONS:       5

 -----------------------------------------------------------------------------------

   CUMULATIVE VOLUMES               L**3   RATES FOR THIS TIME STEP           L**3/T
   ------------------                      ------------------------

                                     IN                                         IN
                                     --                                         --
        PRECIPITATION =        2076621.55          PRECIPITATION =                  
           STREAMFLOW =                               STREAMFLOW =                  
     GW BOUNDARY FLOW =                         GW BOUNDARY FLOW =                  


                                    OUT                                        OUT
                                    ---                                        ---
   EVAPOTRANSPIRATION =        1423312.57     EVAPOTRANSPIRATION =          34189.28
           STREAMFLOW =         523316.53             STREAMFLOW =          15097.56
     GW BOUNDARY FLOW =          45614.38       GW BOUNDARY FLOW =            724.83

   INFLOWS - OUTFLOWS =          84378.08     INFLOWS - OUTFLOWS =         -50011.68
             --------                                   --------

 TOTAL STORAGE CHANGE =          86240.32         STORAGE CHANGE =         -49984.57
       --------------                             --------------
         LAND SURFACE =         152551.10           LAND SURFACE =         -75205.42
            SOIL ZONE =        1284270.97              SOIL ZONE =          42824.19
     UNSATURATED ZONE =       -1111074.06       UNSATURATED ZONE =         -12900.15
       SATURATED ZONE =        -239507.69         SATURATED ZONE =          -4703.18

 OVERALL BUDGET ERROR =          -1862.24           BUDGET ERROR =            -27.11


  PERCENT DISCREPANCY =             -0.09    PERCENT DISCREPANCY =             -0.05



1
 SUMMARY VOLUMETRIC BUDGET FOR GSFLOW 
 DATE: 12 09 1980              CUMULATIVE TIME STEP:      70
 MODFLOW STRESS PERIOD      2     CURRENT TIME STEP:      70     ITERATIONS:       5

 -----------------------------------------------------------------------------------

   CUMULATIVE VOLUMES               L**3   RATES FOR THIS TIME STEP           L**3/T
   ------------------                      ------------------------

                                     IN                                         IN
                                     --                                         --
        PRECIPITATION =        4284363.63          PRECIPITATION =                  
           STREAMFLOW =                               STREAMFLOW =                  
     GW BOUNDARY FLOW =                         GW BOUNDARY FLOW =                  


                                    OUT                                        OUT
                                    ---                                        ---
   EVAPOTRANSPIRATION =        1446730.93     EVAPOTRANSPIRATION =           2942.43
           STREAMFLOW =         621681.07             STREAMFLOW =          14306.99
     GW BOUNDARY FLOW =          50688.92       GW BOUNDARY FLOW =            725.02

   INFLOWS - OUTFLOWS =        2165262.71     INFLOWS - OUTFLOWS =         -17974.44
             --------                                   --------

 TOTAL STORAGE CHANGE =        2167304.95         STORAGE CHANGE =         -17947.95
       --------------                             --------------
         LAND SURFACE =        2335216.87           LAND SURFACE =          -2942.43
            SOIL ZONE =        1320677.58              SOIL ZONE =           5267.45
     UNSATURATED ZONE =       -1208777.22       UNSATURATED ZONE =         -14158.47
       SATURATED ZONE =        -279812.29         SATURATED ZONE =          -6114.50

 OVERALL BUDGET ERROR =          -2042.24           BUDGET ERROR =            -26.49


  PERCENT DISCREPANCY =             -0.05    PERCENT DISCREPANCY =             -0.15



1
 SUMMARY VOLUMETRIC BUDGET FOR GSFLOW 
 DATE: 12 16 1980              CUMULATIVE TIME STEP:      77
 MODFLOW STRESS PERIOD      2     CURRENT TIME STEP:      77     ITERATIONS:       5

 -----------------------------------------------------------------------------------

   CUMULATIVE VOLUMES               L**3   RATES FOR THIS TIME STEP           L**3/T
   ------------------                      ------------------------

                                     IN                                         IN
                                     --                                         --
        PRECIPITATION =        4284363.63          PRECIPITATION =                  
           STREAMFLOW =                               STREAMFLOW =                  
     GW BOUNDARY FLOW =                         GW BOUNDARY FLOW =                  


                                    OUT                                        OUT
                                    ---                                        ---
   EVAPOTRANSPIRATION =        1588730.28     EVAPOTRANSPIRATION =          33888.80
           STREAMFLOW =         740195.56             STREAMFLOW =          24561.79
     GW BOUNDARY FLOW =          55765.92       GW BOUNDARY FLOW =            725.87

   INFLOWS - OUTFLOWS =        1899671.86     INFLOWS - OUTFLOWS =         -59176.46
             --------                                   --------

 TOTAL STORAGE CHANGE =        1901886.86         STORAGE CHANGE =         -59149.78
       --------------                             --------------
         LAND SURFACE =        2023939.67           LAND SURFACE =        -129021.52
            SOIL ZONE =        1497285.83              SOIL ZONE =          83535.76
     UNSATURATED ZONE =       -1298202.72       UNSATURATED ZONE =          -9035.10
       SATURATED ZONE =        -321135.91         SATURATED ZONE =          -4628.91

 OVERALL BUDGET ERROR =          -2215.00           BUDGET ERROR =            -26.68


  PERCENT DISCREPANCY =             -0.05    PERCENT DISCREPANCY =             -0.05



1
 SUMMARY VOLUMETRIC BUDGET FOR GSFLOW 
 DATE: 12 23 1980              CUMULATIVE TIME STEP:      84
 MODFLOW STRESS PERIOD      2     CURRENT TIME STEP:      84     ITERATIONS:       6

 -----------------------------------------------------------------------------------

   CUMULATIVE VOLUMES               L**3   RATES FOR THIS TIME STEP           L**3/T
   ------------------                      ------------------------

                                     IN                                         IN
                                     --                                         --
        PRECIPITATION =        4516757.54          PRECIPITATION =                  
           STREAMFLOW =                               STREAMFLOW =                  
     GW BOUNDARY FLOW =                         GW BOUNDARY FLOW =                  


                                    OUT                                        OUT
                                    ---                                        ---
   EVAPOTRANSPIRATION =        1794741.09     EVAPOTRANSPIRATION =          35140.32
           STREAMFLOW =         964756.78             STREAMFLOW =          29964.19
     GW BOUNDARY FLOW =          60857.87       GW BOUNDARY FLOW =            728.03

   INFLOWS - OUTFLOWS =        1696401.80     INFLOWS - OUTFLOWS =         -65832.53
             --------                                   --------

 TOTAL STORAGE CHANGE =        1698768.36         STORAGE CHANGE =         -65814.57
       --------------                             --------------
         LAND SURFACE =        1432148.87           LAND SURFACE =         -48137.04
            SOIL ZONE =        1956741.63              SOIL ZONE =          -6909.24
     UNSATURATED ZONE =       -1340136.78       UNSATURATED ZONE =          -6018.59
       SATURATED ZONE =        -349985.37         SATURATED ZONE =          -4749.70

 OVERALL BUDGET ERROR =          -2366.56           BUDGET ERROR =            -17.97


  PERCENT DISCREPANCY =             -0.05    PERCENT DISCREPANCY =             -0.03



1
 SUMMARY VOLUMETRIC BUDGET FOR GSFLOW 
 DATE: 12 30 1980              CUMULATIVE TIME STEP:      91
 MODFLOW STRESS PERIOD      2     CURRENT TIME STEP:      91     ITERATIONS:       7

 -----------------------------------------------------------------------------------

   CUMULATIVE VOLUMES               L**3   RATES FOR THIS TIME STEP           L**3/T
   ------------------                      ------------------------

                                     IN                                         IN
                                     --                                         --
        PRECIPITATION =        4516757.54          PRECIPITATION =                  
           STREAMFLOW =                               STREAMFLOW =                  
     GW BOUNDARY FLOW =                         GW BOUNDARY FLOW =                  


                                    OUT                                        OUT
                                    ---                                        ---
   EVAPOTRANSPIRATION =        2155437.78     EVAPOTRANSPIRATION =          45891.07
           STREAMFLOW =        1206532.90             STREAMFLOW =          26759.82
     GW BOUNDARY FLOW =          65958.33       GW BOUNDARY FLOW =            728.54

   INFLOWS - OUTFLOWS =        1088828.53     INFLOWS - OUTFLOWS =         -73379.44
             --------                                   --------

 TOTAL STORAGE CHANGE =        1091295.21         STORAGE CHANGE =         -73367.19
       --------------                             --------------
         LAND SURFACE =         640989.36           LAND SURFACE =         -40335.74
            SOIL ZONE =        2180825.82              SOIL ZONE =         -23720.94
     UNSATURATED ZONE =       -1355231.13       UNSATURATED ZONE =          -5266.21
       SATURATED ZONE =        -375288.84         SATURATED ZONE =          -4044.30

 OVERALL BUDGET ERROR =          -2466.68           BUDGET ERROR =            -12.25


  PERCENT DISCREPANCY =             -0.05    PERCENT DISCREPANCY =             -0.02



1
 SUMMARY VOLUMETRIC BUDGET FOR GSFLOW 
 DATE: 01 06 1981              CUMULATIVE TIME STEP:      98
 MODFLOW STRESS PERIOD      2     CURRENT TIME STEP:      98     ITERATIONS:       6

 -----------------------------------------------------------------------------------

   CUMULATIVE VOLUMES               L**3   RATES FOR THIS TIME STEP           L**3/T
   ------------------                      ------------------------

                                     IN                                         IN
                                     --                                         --
        PRECIPITATION =        5004445.43          PRECIPITATION =                  
           STREAMFLOW =                               STREAMFLOW =                  
     GW BOUNDARY FLOW =                         GW BOUNDARY FLOW =                  


                                    OUT                                        OUT
                                    ---                                        ---
   EVAPOTRANSPIRATION =        2383364.97     EVAPOTRANSPIRATION =          21388.78
           STREAMFLOW =        1359355.53             STREAMFLOW =          21086.18
     GW BOUNDARY FLOW =          71051.63       GW BOUNDARY FLOW =            727.11

   INFLOWS - OUTFLOWS =        1190673.30     INFLOWS - OUTFLOWS =         -43202.07
             --------                                   --------

 TOTAL STORAGE CHANGE =        1193232.92         STORAGE CHANGE =         -43188.63
       --------------                             --------------
         LAND SURFACE =         837080.27           LAND SURFACE =         -30417.06
            SOIL ZONE =        2191087.00              SOIL ZONE =           3028.26
     UNSATURATED ZONE =       -1420967.46       UNSATURATED ZONE =          -9856.24
       SATURATED ZONE =        -413966.89         SATURATED ZONE =          -5943.59

 OVERALL BUDGET ERROR =          -2559.62           BUDGET ERROR =            -13.44


  PERCENT DISCREPANCY =             -0.05    PERCENT DISCREPANCY =             -0.03



1
 SUMMARY VOLUMETRIC BUDGET FOR GSFLOW 
 DATE: 01 13 1981              CUMULATIVE TIME STEP:     105
 MODFLOW STRESS PERIOD      2     CURRENT TIME STEP:     105     ITERATIONS:       6

 -----------------------------------------------------------------------------------

   CUMULATIVE VOLUMES               L**3   RATES FOR THIS TIME STEP           L**3/T
   ------------------                      ------------------------

                                     IN                                         IN
                                     --                                         --
        PRECIPITATION =        5004445.43          PRECIPITATION =                  
           STREAMFLOW =                               STREAMFLOW =                  
     GW BOUNDARY FLOW =                         GW BOUNDARY FLOW =                  


                                    OUT                                        OUT
                                    ---                                        ---
   EVAPOTRANSPIRATION =        2600877.61     EVAPOTRANSPIRATION =          44455.00
           STREAMFLOW =        1506342.23             STREAMFLOW =          19895.38
     GW BOUNDARY FLOW =          76139.16       GW BOUNDARY FLOW =            726.55

   INFLOWS - OUTFLOWS =         821086.42     INFLOWS - OUTFLOWS =         -65076.93
             --------                                   --------

 TOTAL STORAGE CHANGE =         823757.12         STORAGE CHANGE =         -65062.95
       --------------                             --------------
         LAND SURFACE =         626702.00           LAND SURFACE =         -38991.59
            SOIL ZONE =        2140834.44              SOIL ZONE =         -10365.30
     UNSATURATED ZONE =       -1485697.22       UNSATURATED ZONE =          -9155.21
       SATURATED ZONE =        -458082.10         SATURATED ZONE =          -6550.84

 OVERALL BUDGET ERROR =          -2670.70           BUDGET ERROR =            -13.99


  PERCENT DISCREPANCY =             -0.05    PERCENT DISCREPANCY =             -0.02



1
 SUMMARY VOLUMETRIC BUDGET FOR GSFLOW 
 DATE: 01 20 1981              CUMULATIVE TIME STEP:     112
 MODFLOW STRESS PERIOD      2     CURRENT TIME STEP:     112     ITERATIONS:       6

 -----------------------------------------------------------------------------------

   CUMULATIVE VOLUMES               L**3   RATES FOR THIS TIME STEP           L**3/T
   ------------------                      ------------------------

                                     IN                                         IN
                                     --                                         --
        PRECIPITATION =        5170466.84          PRECIPITATION =          41505.35
           STREAMFLOW =                               STREAMFLOW =                  
     GW BOUNDARY FLOW =                         GW BOUNDARY FLOW =                  


                                    OUT                                        OUT
                                    ---                                        ---
   EVAPOTRANSPIRATION =        2883150.61     EVAPOTRANSPIRATION =          35211.68
           STREAMFLOW =        1647945.69             STREAMFLOW =          20000.38
     GW BOUNDARY FLOW =          81224.13       GW BOUNDARY FLOW =            726.36

   INFLOWS - OUTFLOWS =         558146.41     INFLOWS - OUTFLOWS =         -14433.08
             --------                                   --------

 TOTAL STORAGE CHANGE =         560915.77         STORAGE CHANGE =         -14419.04
       --------------                             --------------
         LAND SURFACE =         436285.42           LAND SURFACE =           4326.68
            SOIL ZONE =        2147816.96              SOIL ZONE =          -9997.89
     UNSATURATED ZONE =       -1518161.30       UNSATURATED ZONE =          -1866.34
       SATURATED ZONE =        -505025.31         SATURATED ZONE =          -6881.49

 OVERALL BUDGET ERROR =          -2769.35           BUDGET ERROR =            -14.04


  PERCENT DISCREPANCY =             -0.05    PERCENT DISCREPANCY =             -0.03



1
 SUMMARY VOLUMETRIC BUDGET FOR GSFLOW 
 DATE: 01 27 1981              CUMULATIVE TIME STEP:     119
 MODFLOW STRESS PERIOD      2     CURRENT TIME STEP:     119     ITERATIONS:       6

 -----------------------------------------------------------------------------------

   CUMULATIVE VOLUMES               L**3   RATES FOR THIS TIME STEP           L**3/T
   ------------------                      ------------------------

                                     IN                                         IN
                                     --                                         --
        PRECIPITATION =        8646540.08          PRECIPITATION =        2936503.63
           STREAMFLOW =                               STREAMFLOW =                  
     GW BOUNDARY FLOW =                         GW BOUNDARY FLOW =                  


                                    OUT                                        OUT
                                    ---                                        ---
   EVAPOTRANSPIRATION =        3117681.02     EVAPOTRANSPIRATION =          13120.97
           STREAMFLOW =        1792686.11             STREAMFLOW =          18591.39
     GW BOUNDARY FLOW =          86308.40       GW BOUNDARY FLOW =            726.09

   INFLOWS - OUTFLOWS =        3649864.55     INFLOWS - OUTFLOWS =        2904065.19
             --------                                   --------

 TOTAL STORAGE CHANGE =        3652707.18         STORAGE CHANGE =        2904075.49
       --------------                             --------------
         LAND SURFACE =        3540180.85           LAND SURFACE =        2923352.24
            SOIL ZONE =        2170667.77              SOIL ZONE =          -7540.09
     UNSATURATED ZONE =       -1506304.87       UNSATURATED ZONE =          -4600.85
       SATURATED ZONE =        -551836.57         SATURATED ZONE =          -7135.81

 OVERALL BUDGET ERROR =          -2842.63           BUDGET ERROR =            -10.30


  PERCENT DISCREPANCY =             -0.03    PERCENT DISCREPANCY =             -0.00



1
 SUMMARY VOLUMETRIC BUDGET FOR GSFLOW 
 DATE: 02 03 1981              CUMULATIVE TIME STEP:     126
 MODFLOW STRESS PERIOD      2     CURRENT TIME STEP:     126     ITERATIONS:       7

 -----------------------------------------------------------------------------------

   CUMULATIVE VOLUMES               L**3   RATES FOR THIS TIME STEP           L**3/T
   ------------------                      ------------------------

                                     IN                                         IN
                                     --                                         --
        PRECIPITATION =        1.1739D+07          PRECIPITATION =                  
           STREAMFLOW =                               STREAMFLOW =                  
     GW BOUNDARY FLOW =                         GW BOUNDARY FLOW =                  


                                    OUT                                        OUT
                                    ---                                        ---
   EVAPOTRANSPIRATION =        3154194.07     EVAPOTRANSPIRATION =           6975.48
           STREAMFLOW =        1918793.42             STREAMFLOW =          17910.34
     GW BOUNDARY FLOW =          91389.73       GW BOUNDARY FLOW =            725.83

   INFLOWS - OUTFLOWS =        6574311.55     INFLOWS - OUTFLOWS =         -25611.65
             --------                                   --------

 TOTAL STORAGE CHANGE =        6577229.00         STORAGE CHANGE =         -25603.08
       --------------                             --------------
         LAND SURFACE =        6595816.50           LAND SURFACE =          -6975.48
            SOIL ZONE =        2159922.40              SOIL ZONE =            515.56
     UNSATURATED ZONE =       -1573068.96       UNSATURATED ZONE =         -11223.66
       SATURATED ZONE =        -605440.94         SATURATED ZONE =          -7919.49

 OVERALL BUDGET ERROR =          -2917.44           BUDGET ERROR =             -8.57


  PERCENT DISCREPANCY =             -0.02    PERCENT DISCREPANCY =             -0.03



1
 SUMMARY VOLUMETRIC BUDGET FOR GSFLOW 
 DATE: 02 10 1981              CUMULATIVE TIME STEP:     133
 MODFLOW STRESS PERIOD      2     CURRENT TIME STEP:     133     ITERATIONS:       5

 -----------------------------------------------------------------------------------

   CUMULATIVE VOLUMES               L**3   RATES FOR THIS TIME STEP           L**3/T
   ------------------                      ------------------------

                                     IN                                         IN
                                     --                                         --
        PRECIPITATION =        1.1838D+07          PRECIPITATION =                  
           STREAMFLOW =                               STREAMFLOW =                  
     GW BOUNDARY FLOW =                         GW BOUNDARY FLOW =                  


                                    OUT                                        OUT
                                    ---                                        ---
   EVAPOTRANSPIRATION =        3279595.13     EVAPOTRANSPIRATION =          32880.06
           STREAMFLOW =        2044397.36             STREAMFLOW =          17968.79
     GW BOUNDARY FLOW =          96470.60       GW BOUNDARY FLOW =            725.83

   INFLOWS - OUTFLOWS =        6417790.19     INFLOWS - OUTFLOWS =         -51574.68
             --------                                   --------

 TOTAL STORAGE CHANGE =        6420804.92         STORAGE CHANGE =         -51556.10
       --------------                             --------------
         LAND SURFACE =        6569979.95           LAND SURFACE =         -32880.06
            SOIL ZONE =        2164326.86              SOIL ZONE =            612.44
     UNSATURATED ZONE =       -1649490.98       UNSATURATED ZONE =         -10563.03
       SATURATED ZONE =        -664010.91         SATURATED ZONE =          -8725.45

 OVERALL BUDGET ERROR =          -3014.73           BUDGET ERROR =            -18.58


  PERCENT DISCREPANCY =             -0.03    PERCENT DISCREPANCY =             -0.04



1
 SUMMARY VOLUMETRIC BUDGET FOR GSFLOW 
 DATE: 02 17 1981              CUMULATIVE TIME STEP:     140
 MODFLOW STRESS PERIOD      2     CURRENT TIME STEP:     140     ITERATIONS:      10

 -----------------------------------------------------------------------------------

   CUMULATIVE VOLUMES               L**3   RATES FOR THIS TIME STEP           L**3/T
   ------------------                      ------------------------

                                     IN                                         IN
                                     --                                         --
        PRECIPITATION =        1.2765D+07          PRECIPITATION =          68929.28
           STREAMFLOW =                               STREAMFLOW =                  
     GW BOUNDARY FLOW =                         GW BOUNDARY FLOW =                  


                                    OUT                                        OUT
                                    ---                                        ---
   EVAPOTRANSPIRATION =        3617692.93     EVAPOTRANSPIRATION =          68607.56
           STREAMFLOW =        2584023.16             STREAMFLOW =         124495.11
     GW BOUNDARY FLOW =         101579.96       GW BOUNDARY FLOW =            734.46

   INFLOWS - OUTFLOWS =        6461673.06     INFLOWS - OUTFLOWS =        -124907.85
             --------                                   --------

 TOTAL STORAGE CHANGE =        6464794.03         STORAGE CHANGE =        -124894.88
       --------------                             --------------
         LAND SURFACE =        5590061.11           LAND SURFACE =        -278671.93
            SOIL ZONE =        2956997.25              SOIL ZONE =          71823.07
     UNSATURATED ZONE =       -1400839.92       UNSATURATED ZONE =          79569.40
       SATURATED ZONE =        -681424.41         SATURATED ZONE =           2384.59

 OVERALL BUDGET ERROR =          -3120.97           BUDGET ERROR =            -12.97


  PERCENT DISCREPANCY =             -0.02    PERCENT DISCREPANCY =             -0.01



1
 SUMMARY VOLUMETRIC BUDGET FOR GSFLOW 
 DATE: 02 24 1981              CUMULATIVE TIME STEP:     147
 MODFLOW STRESS PERIOD      2     CURRENT TIME STEP:     147     ITERATIONS:       9

 -----------------------------------------------------------------------------------

   CUMULATIVE VOLUMES               L**3   RATES FOR THIS TIME STEP           L**3/T
   ------------------                      ------------------------

                                     IN                                         IN
                                     --                                         --
        PRECIPITATION =        1.3179D+07          PRECIPITATION =         344646.37
           STREAMFLOW =                               STREAMFLOW =                  
     GW BOUNDARY FLOW =                         GW BOUNDARY FLOW =                  


                                    OUT                                        OUT
                                    ---                                        ---
   EVAPOTRANSPIRATION =        3959014.51     EVAPOTRANSPIRATION =          18832.76
           STREAMFLOW =        3139309.45             STREAMFLOW =          51790.31
     GW BOUNDARY FLOW =         106714.55       GW BOUNDARY FLOW =            732.09

   INFLOWS - OUTFLOWS =        5973506.24     INFLOWS - OUTFLOWS =         273291.20
             --------                                   --------

 TOTAL STORAGE CHANGE =        5976657.67         STORAGE CHANGE =         273292.65
       --------------                             --------------
         LAND SURFACE =        4984244.21           LAND SURFACE =         286368.61
            SOIL ZONE =        2695047.98              SOIL ZONE =         -43260.31
     UNSATURATED ZONE =       -1046009.68       UNSATURATED ZONE =          27603.11
       SATURATED ZONE =        -656624.83         SATURATED ZONE =           2581.24

 OVERALL BUDGET ERROR =          -3151.43           BUDGET ERROR =             -1.45


  PERCENT DISCREPANCY =             -0.02    PERCENT DISCREPANCY =             -0.00



1
 SUMMARY VOLUMETRIC BUDGET FOR GSFLOW 
 DATE: 03 03 1981              CUMULATIVE TIME STEP:     154
 MODFLOW STRESS PERIOD      2     CURRENT TIME STEP:     154     ITERATIONS:       8

 -----------------------------------------------------------------------------------

   CUMULATIVE VOLUMES               L**3   RATES FOR THIS TIME STEP           L**3/T
   ------------------                      ------------------------

                                     IN                                         IN
                                     --                                         --
        PRECIPITATION =        1.3447D+07          PRECIPITATION =                  
           STREAMFLOW =                               STREAMFLOW =                  
     GW BOUNDARY FLOW =                         GW BOUNDARY FLOW =                  


                                    OUT                                        OUT
                                    ---                                        ---
   EVAPOTRANSPIRATION =        4119697.24     EVAPOTRANSPIRATION =          45353.75
           STREAMFLOW =        3362478.24             STREAMFLOW =          27721.58
     GW BOUNDARY FLOW =         111822.31       GW BOUNDARY FLOW =            728.46

   INFLOWS - OUTFLOWS =        5852605.25     INFLOWS - OUTFLOWS =         -73803.79
             --------                                   --------

 TOTAL STORAGE CHANGE =        5855716.52         STORAGE CHANGE =         -73808.64
       --------------                             --------------
         LAND SURFACE =        5068137.30           LAND SURFACE =         -66041.98
            SOIL ZONE =        2487616.70              SOIL ZONE =           2891.74
     UNSATURATED ZONE =       -1039761.18       UNSATURATED ZONE =          -8752.44
       SATURATED ZONE =        -660276.30         SATURATED ZONE =          -1905.96

 OVERALL BUDGET ERROR =          -3111.27           BUDGET ERROR =              4.85


  PERCENT DISCREPANCY =             -0.02    PERCENT DISCREPANCY =              0.01



1
 SUMMARY VOLUMETRIC BUDGET FOR GSFLOW 
 DATE: 03 10 1981              CUMULATIVE TIME STEP:     161
 MODFLOW STRESS PERIOD      2     CURRENT TIME STEP:     161     ITERATIONS:       7

 -----------------------------------------------------------------------------------

   CUMULATIVE VOLUMES               L**3   RATES FOR THIS TIME STEP           L**3/T
   ------------------                      ------------------------

                                     IN                                         IN
                                     --                                         --
        PRECIPITATION =        1.3493D+07          PRECIPITATION =                  
           STREAMFLOW =                               STREAMFLOW =                  
     GW BOUNDARY FLOW =                         GW BOUNDARY FLOW =                  


                                    OUT                                        OUT
                                    ---                                        ---
   EVAPOTRANSPIRATION =        4465486.82     EVAPOTRANSPIRATION =          72811.00
           STREAMFLOW =        3597811.78             STREAMFLOW =          43442.87
     GW BOUNDARY FLOW =         116921.24       GW BOUNDARY FLOW =            729.25

   INFLOWS - OUTFLOWS =        5312721.31     INFLOWS - OUTFLOWS =        -116983.12
             --------                                   --------

 TOTAL STORAGE CHANGE =        5315818.60         STORAGE CHANGE =        -116984.38
       --------------                             --------------
         LAND SURFACE =        4391652.96           LAND SURFACE =        -169089.79
            SOIL ZONE =        2600921.52              SOIL ZONE =          28926.50
     UNSATURATED ZONE =       -1005123.63       UNSATURATED ZONE =          23705.79
       SATURATED ZONE =        -671632.25         SATURATED ZONE =           -526.88

 OVERALL BUDGET ERROR =          -3097.29           BUDGET ERROR =              1.26


  PERCENT DISCREPANCY =             -0.02    PERCENT DISCREPANCY =              0.00



1
 SUMMARY VOLUMETRIC BUDGET FOR GSFLOW 
 DATE: 03 17 1981              CUMULATIVE TIME STEP:     168
 MODFLOW STRESS PERIOD      2     CURRENT TIME STEP:     168     ITERATIONS:       6

 -----------------------------------------------------------------------------------

   CUMULATIVE VOLUMES               L**3   RATES FOR THIS TIME STEP           L**3/T
   ------------------                      ------------------------

                                     IN                                         IN
                                     --                                         --
        PRECIPITATION =        1.3744D+07          PRECIPITATION =                  
           STREAMFLOW =                               STREAMFLOW =                  
     GW BOUNDARY FLOW =                         GW BOUNDARY FLOW =                  


                                    OUT                                        OUT
                                    ---                                        ---
   EVAPOTRANSPIRATION =        4833896.58     EVAPOTRANSPIRATION =          40234.36
           STREAMFLOW =        3824002.66             STREAMFLOW =          24095.03
     GW BOUNDARY FLOW =         122022.13       GW BOUNDARY FLOW =            727.93

   INFLOWS - OUTFLOWS =        4964569.52     INFLOWS - OUTFLOWS =         -65057.32
             --------                                   --------

 TOTAL STORAGE CHANGE =        4967644.89         STORAGE CHANGE =         -65054.71
       --------------                             --------------
         LAND SURFACE =        4202420.66           LAND SURFACE =         -39897.13
            SOIL ZONE =        2436116.61              SOIL ZONE =          -5350.72
     UNSATURATED ZONE =        -981553.96       UNSATURATED ZONE =         -15583.06
       SATURATED ZONE =        -689338.42         SATURATED ZONE =          -4223.80

 OVERALL BUDGET ERROR =          -3075.37           BUDGET ERROR =             -2.61


  PERCENT DISCREPANCY =             -0.02    PERCENT DISCREPANCY =             -0.00



1
 SUMMARY VOLUMETRIC BUDGET FOR GSFLOW 
 DATE: 03 24 1981              CUMULATIVE TIME STEP:     175
 MODFLOW STRESS PERIOD      2     CURRENT TIME STEP:     175     ITERATIONS:       6

 -----------------------------------------------------------------------------------

   CUMULATIVE VOLUMES               L**3   RATES FOR THIS TIME STEP           L**3/T
   ------------------                      ------------------------

                                     IN                                         IN
                                     --                                         --
        PRECIPITATION =        1.4367D+07          PRECIPITATION =                  
           STREAMFLOW =                               STREAMFLOW =                  
     GW BOUNDARY FLOW =                         GW BOUNDARY FLOW =                  


                                    OUT                                        OUT
                                    ---                                        ---
   EVAPOTRANSPIRATION =        5189673.91     EVAPOTRANSPIRATION =          87428.11
           STREAMFLOW =        3999642.40             STREAMFLOW =          26770.14
     GW BOUNDARY FLOW =         127114.24       GW BOUNDARY FLOW =            727.40

   INFLOWS - OUTFLOWS =        5050314.97     INFLOWS - OUTFLOWS =        -114925.65
             --------                                   --------

 TOTAL STORAGE CHANGE =        5053426.04         STORAGE CHANGE =        -114922.47
       --------------                             --------------
         LAND SURFACE =        4477696.10           LAND SURFACE =         -65035.10
            SOIL ZONE =        2348909.59              SOIL ZONE =         -41067.01
     UNSATURATED ZONE =       -1049029.82       UNSATURATED ZONE =          -3551.02
       SATURATED ZONE =        -724149.83         SATURATED ZONE =          -5269.34

 OVERALL BUDGET ERROR =          -3111.07           BUDGET ERROR =             -3.18


  PERCENT DISCREPANCY =             -0.02    PERCENT DISCREPANCY =             -0.00



1
 SUMMARY VOLUMETRIC BUDGET FOR GSFLOW 
 DATE: 03 31 1981              CUMULATIVE TIME STEP:     182
 MODFLOW STRESS PERIOD      2     CURRENT TIME STEP:     182     ITERATIONS:       8

 -----------------------------------------------------------------------------------

   CUMULATIVE VOLUMES               L**3   RATES FOR THIS TIME STEP           L**3/T
   ------------------                      ------------------------

                                     IN                                         IN
                                     --                                         --
        PRECIPITATION =        1.5777D+07          PRECIPITATION =                  
           STREAMFLOW =                               STREAMFLOW =                  
     GW BOUNDARY FLOW =                         GW BOUNDARY FLOW =                  


                                    OUT                                        OUT
                                    ---                                        ---
   EVAPOTRANSPIRATION =        5619611.30     EVAPOTRANSPIRATION =          54090.27
           STREAMFLOW =        4506577.63             STREAMFLOW =          36966.69
     GW BOUNDARY FLOW =         132234.57       GW BOUNDARY FLOW =            730.25

   INFLOWS - OUTFLOWS =        5518324.49     INFLOWS - OUTFLOWS =         -91787.21
             --------                                   --------

 TOTAL STORAGE CHANGE =        5521425.22         STORAGE CHANGE =         -91796.35
       --------------                             --------------
         LAND SURFACE =        4494242.70           LAND SURFACE =         -55488.75
            SOIL ZONE =        2545328.90              SOIL ZONE =         -41656.63
     UNSATURATED ZONE =        -800659.41       UNSATURATED ZONE =           6337.30
       SATURATED ZONE =        -717486.97         SATURATED ZONE =           -988.27

 OVERALL BUDGET ERROR =          -3100.74           BUDGET ERROR =              9.14


  PERCENT DISCREPANCY =             -0.02    PERCENT DISCREPANCY =              0.01



1
 SUMMARY VOLUMETRIC BUDGET FOR GSFLOW 
 DATE: 04 07 1981              CUMULATIVE TIME STEP:     189
 MODFLOW STRESS PERIOD      2     CURRENT TIME STEP:     189     ITERATIONS:       7

 -----------------------------------------------------------------------------------

   CUMULATIVE VOLUMES               L**3   RATES FOR THIS TIME STEP           L**3/T
   ------------------                      ------------------------

                                     IN                                         IN
                                     --                                         --
        PRECIPITATION =        1.6121D+07          PRECIPITATION =                  
           STREAMFLOW =                               STREAMFLOW =                  
     GW BOUNDARY FLOW =                         GW BOUNDARY FLOW =                  


                                    OUT                                        OUT
                                    ---                                        ---
   EVAPOTRANSPIRATION =        6245677.54     EVAPOTRANSPIRATION =         103845.38
           STREAMFLOW =        4823671.81             STREAMFLOW =          43223.25
     GW BOUNDARY FLOW =         137345.99       GW BOUNDARY FLOW =            730.43

   INFLOWS - OUTFLOWS =        4914772.26     INFLOWS - OUTFLOWS =        -147799.07
             --------                                   --------

 TOTAL STORAGE CHANGE =        4917831.67         STORAGE CHANGE =        -147805.51
       --------------                             --------------
         LAND SURFACE =        3870170.34           LAND SURFACE =        -138668.80
            SOIL ZONE =        2476742.39              SOIL ZONE =         -20332.21
     UNSATURATED ZONE =        -713796.91       UNSATURATED ZONE =          11413.99
       SATURATED ZONE =        -715284.15         SATURATED ZONE =           -218.49

 OVERALL BUDGET ERROR =          -3059.40           BUDGET ERROR =              6.44


  PERCENT DISCREPANCY =             -0.02    PERCENT DISCREPANCY =              0.00



1
 SUMMARY VOLUMETRIC BUDGET FOR GSFLOW 
 DATE: 04 14 1981              CUMULATIVE TIME STEP:     196
 MODFLOW STRESS PERIOD      2     CURRENT TIME STEP:     196     ITERATIONS:       9

 -----------------------------------------------------------------------------------

   CUMULATIVE VOLUMES               L**3   RATES FOR THIS TIME STEP           L**3/T
   ------------------                      ------------------------

                                     IN                                         IN
                                     --                                         --
        PRECIPITATION =        1.6121D+07          PRECIPITATION =                  
           STREAMFLOW =                               STREAMFLOW =                  
     GW BOUNDARY FLOW =                         GW BOUNDARY FLOW =                  


                                    OUT                                        OUT
                                    ---                                        ---
   EVAPOTRANSPIRATION =        7156367.07     EVAPOTRANSPIRATION =         191911.71
           STREAMFLOW =        5149356.99             STREAMFLOW =          55195.40
     GW BOUNDARY FLOW =         142457.94       GW BOUNDARY FLOW =            730.39

   INFLOWS - OUTFLOWS =        3673285.61     INFLOWS - OUTFLOWS =        -247837.50
             --------                                   --------

 TOTAL STORAGE CHANGE =        3676336.84         STORAGE CHANGE =        -247837.10
       --------------                             --------------
         LAND SURFACE =        2621455.95           LAND SURFACE =        -253007.68
            SOIL ZONE =        2385190.54              SOIL ZONE =         -16845.03
     UNSATURATED ZONE =        -619976.40       UNSATURATED ZONE =          20166.98
       SATURATED ZONE =        -710333.25         SATURATED ZONE =           1848.62

 OVERALL BUDGET ERROR =          -3051.23           BUDGET ERROR =             -0.40


  PERCENT DISCREPANCY =             -0.02    PERCENT DISCREPANCY =             -0.00



1
 SUMMARY VOLUMETRIC BUDGET FOR GSFLOW 
 DATE: 04 21 1981              CUMULATIVE TIME STEP:     203
 MODFLOW STRESS PERIOD      2     CURRENT TIME STEP:     203     ITERATIONS:       9

 -----------------------------------------------------------------------------------

   CUMULATIVE VOLUMES               L**3   RATES FOR THIS TIME STEP           L**3/T
   ------------------                      ------------------------

                                     IN                                         IN
                                     --                                         --
        PRECIPITATION =        1.6310D+07          PRECIPITATION =                  
           STREAMFLOW =                               STREAMFLOW =                  
     GW BOUNDARY FLOW =                         GW BOUNDARY FLOW =                  


                                    OUT                                        OUT
                                    ---                                        ---
   EVAPOTRANSPIRATION =        8226309.54     EVAPOTRANSPIRATION =         151397.48
           STREAMFLOW =        5486893.83             STREAMFLOW =          45563.06
     GW BOUNDARY FLOW =         147565.08       GW BOUNDARY FLOW =            729.06

   INFLOWS - OUTFLOWS =        2449474.20     INFLOWS - OUTFLOWS =        -197689.61
             --------                                   --------

 TOTAL STORAGE CHANGE =        2452516.07         STORAGE CHANGE =        -197693.78
       --------------                             --------------
         LAND SURFACE =        1440926.23           LAND SURFACE =        -121359.42
            SOIL ZONE =        2205557.40              SOIL ZONE =         -96273.93
     UNSATURATED ZONE =        -499097.29       UNSATURATED ZONE =          17248.27
       SATURATED ZONE =        -694870.28         SATURATED ZONE =           2691.30

 OVERALL BUDGET ERROR =          -3041.87           BUDGET ERROR =              4.17


  PERCENT DISCREPANCY =             -0.02    PERCENT DISCREPANCY =              0.00



1
 SUMMARY VOLUMETRIC BUDGET FOR GSFLOW 
 DATE: 04 28 1981              CUMULATIVE TIME STEP:     210
 MODFLOW STRESS PERIOD      2     CURRENT TIME STEP:     210     ITERATIONS:       9

 -----------------------------------------------------------------------------------

   CUMULATIVE VOLUMES               L**3   RATES FOR THIS TIME STEP           L**3/T
   ------------------                      ------------------------

                                     IN                                         IN
                                     --                                         --
        PRECIPITATION =        1.6515D+07          PRECIPITATION =                  
           STREAMFLOW =                               STREAMFLOW =                  
     GW BOUNDARY FLOW =                         GW BOUNDARY FLOW =                  


                                    OUT                                        OUT
                                    ---                                        ---
   EVAPOTRANSPIRATION =        9466035.50     EVAPOTRANSPIRATION =         200832.63
           STREAMFLOW =        5698710.33             STREAMFLOW =          24694.76
     GW BOUNDARY FLOW =         152657.18       GW BOUNDARY FLOW =            726.33

   INFLOWS - OUTFLOWS =        1198029.87     INFLOWS - OUTFLOWS =        -226253.72
             --------                                   --------

 TOTAL STORAGE CHANGE =        1201046.59         STORAGE CHANGE =        -226255.34
       --------------                             --------------
         LAND SURFACE =         691530.95           LAND SURFACE =         -83509.90
            SOIL ZONE =        1694254.52              SOIL ZONE =        -138855.38
     UNSATURATED ZONE =        -496360.22       UNSATURATED ZONE =          -3830.06
       SATURATED ZONE =        -688378.66         SATURATED ZONE =            -60.01

 OVERALL BUDGET ERROR =          -3016.71           BUDGET ERROR =              1.62


  PERCENT DISCREPANCY =             -0.02    PERCENT DISCREPANCY =              0.00



1
 SUMMARY VOLUMETRIC BUDGET FOR GSFLOW 
 DATE: 05 05 1981              CUMULATIVE TIME STEP:     217
 MODFLOW STRESS PERIOD      2     CURRENT TIME STEP:     217     ITERATIONS:       9

 -----------------------------------------------------------------------------------

   CUMULATIVE VOLUMES               L**3   RATES FOR THIS TIME STEP           L**3/T
   ------------------                      ------------------------

                                     IN                                         IN
                                     --                                         --
        PRECIPITATION =        1.6515D+07          PRECIPITATION =                  
           STREAMFLOW =                               STREAMFLOW =                  
     GW BOUNDARY FLOW =                         GW BOUNDARY FLOW =                  


                                    OUT                                        OUT
                                    ---                                        ---
   EVAPOTRANSPIRATION =        1.0319D+07     EVAPOTRANSPIRATION =          47788.29
           STREAMFLOW =        5804595.20             STREAMFLOW =          10812.37
     GW BOUNDARY FLOW =         157732.73       GW BOUNDARY FLOW =            724.19

   INFLOWS - OUTFLOWS =         234536.24     INFLOWS - OUTFLOWS =         -59324.85
             --------                                   --------

 TOTAL STORAGE CHANGE =         237578.68         STORAGE CHANGE =         -59321.18
       --------------                             --------------
         LAND SURFACE =         347350.75           LAND SURFACE =         -17502.06
            SOIL ZONE =        1184764.09              SOIL ZONE =         -22940.45
     UNSATURATED ZONE =        -588804.30       UNSATURATED ZONE =         -15084.53
       SATURATED ZONE =        -705731.86         SATURATED ZONE =          -3794.15

 OVERALL BUDGET ERROR =          -3042.44           BUDGET ERROR =             -3.66


  PERCENT DISCREPANCY =             -0.02    PERCENT DISCREPANCY =             -0.01



1
 SUMMARY VOLUMETRIC BUDGET FOR GSFLOW 
 DATE: 05 12 1981              CUMULATIVE TIME STEP:     224
 MODFLOW STRESS PERIOD      2     CURRENT TIME STEP:     224     ITERATIONS:       9

 -----------------------------------------------------------------------------------

   CUMULATIVE VOLUMES               L**3   RATES FOR THIS TIME STEP           L**3/T
   ------------------                      ------------------------

                                     IN                                         IN
                                     --                                         --
        PRECIPITATION =        1.6515D+07          PRECIPITATION =                  
           STREAMFLOW =                               STREAMFLOW =                  
     GW BOUNDARY FLOW =                         GW BOUNDARY FLOW =                  


                                    OUT                                        OUT
                                    ---                                        ---
   EVAPOTRANSPIRATION =        1.0810D+07     EVAPOTRANSPIRATION =          91189.71
           STREAMFLOW =        5875345.28             STREAMFLOW =          10412.39
     GW BOUNDARY FLOW =         162798.34       GW BOUNDARY FLOW =            723.47

   INFLOWS - OUTFLOWS =        -332342.59     INFLOWS - OUTFLOWS =        -102325.58
             --------                                   --------

 TOTAL STORAGE CHANGE =        -329257.90         STORAGE CHANGE =        -102319.92
       --------------                             --------------
         LAND SURFACE =         198678.97           LAND SURFACE =         -25500.84
            SOIL ZONE =         901635.25              SOIL ZONE =         -57954.65
     UNSATURATED ZONE =        -690197.42       UNSATURATED ZONE =         -12944.11
       SATURATED ZONE =        -739374.70         SATURATED ZONE =          -5920.32

 OVERALL BUDGET ERROR =          -3084.69           BUDGET ERROR =             -5.66


  PERCENT DISCREPANCY =             -0.02    PERCENT DISCREPANCY =             -0.01



1
 SUMMARY VOLUMETRIC BUDGET FOR GSFLOW 
 DATE: 05 19 1981              CUMULATIVE TIME STEP:     231
 MODFLOW STRESS PERIOD      2     CURRENT TIME STEP:     231     ITERATIONS:       8

 -----------------------------------------------------------------------------------

   CUMULATIVE VOLUMES               L**3   RATES FOR THIS TIME STEP           L**3/T
   ------------------                      ------------------------

                                     IN                                         IN
                                     --                                         --
        PRECIPITATION =        1.7837D+07          PRECIPITATION =         169045.43
           STREAMFLOW =                               STREAMFLOW =                  
     GW BOUNDARY FLOW =                         GW BOUNDARY FLOW =                  


                                    OUT                                        OUT
                                    ---                                        ---
   EVAPOTRANSPIRATION =        1.1153D+07     EVAPOTRANSPIRATION =          32129.65
           STREAMFLOW =        6006131.14             STREAMFLOW =          27300.29
     GW BOUNDARY FLOW =         167865.65       GW BOUNDARY FLOW =            725.35

   INFLOWS - OUTFLOWS =         509938.34     INFLOWS - OUTFLOWS =         108890.14
             --------                                   --------

 TOTAL STORAGE CHANGE =         513062.05         STORAGE CHANGE =         108893.84
       --------------                             --------------
         LAND SURFACE =         167097.84           LAND SURFACE =           4534.24
            SOIL ZONE =        1882326.73              SOIL ZONE =         110134.48
     UNSATURATED ZONE =        -756921.11       UNSATURATED ZONE =             -9.53
       SATURATED ZONE =        -779441.42         SATURATED ZONE =          -5765.35

 OVERALL BUDGET ERROR =          -3123.71           BUDGET ERROR =             -3.71


  PERCENT DISCREPANCY =             -0.02    PERCENT DISCREPANCY =             -0.00



1
 SUMMARY VOLUMETRIC BUDGET FOR GSFLOW 
 DATE: 05 26 1981              CUMULATIVE TIME STEP:     238
 MODFLOW STRESS PERIOD      2     CURRENT TIME STEP:     238     ITERATIONS:       8

 -----------------------------------------------------------------------------------

   CUMULATIVE VOLUMES               L**3   RATES FOR THIS TIME STEP           L**3/T
   ------------------                      ------------------------

                                     IN                                         IN
                                     --                                         --
        PRECIPITATION =        1.8252D+07          PRECIPITATION =         284303.67
           STREAMFLOW =                               STREAMFLOW =                  
     GW BOUNDARY FLOW =                         GW BOUNDARY FLOW =                  


                                    OUT                                        OUT
                                    ---                                        ---
   EVAPOTRANSPIRATION =        1.1982D+07     EVAPOTRANSPIRATION =         133987.99
           STREAMFLOW =        6119526.07             STREAMFLOW =          19483.43
     GW BOUNDARY FLOW =         172935.82       GW BOUNDARY FLOW =            724.02

   INFLOWS - OUTFLOWS =         -21981.64     INFLOWS - OUTFLOWS =         130108.23
             --------                                   --------

 TOTAL STORAGE CHANGE =         -18824.62         STORAGE CHANGE =         130114.36
       --------------                             --------------
         LAND SURFACE =          96880.49           LAND SURFACE =          -7049.94
            SOIL ZONE =        1524882.31              SOIL ZONE =         154533.27
     UNSATURATED ZONE =        -813128.34       UNSATURATED ZONE =         -10457.25
       SATURATED ZONE =        -827459.10         SATURATED ZONE =          -6911.73

 OVERALL BUDGET ERROR =          -3157.01           BUDGET ERROR =             -6.13


  PERCENT DISCREPANCY =             -0.02    PERCENT DISCREPANCY =             -0.00



1
 SUMMARY VOLUMETRIC BUDGET FOR GSFLOW 
 DATE: 06 02 1981              CUMULATIVE TIME STEP:     245
 MODFLOW STRESS PERIOD      2     CURRENT TIME STEP:     245     ITERATIONS:      10

 -----------------------------------------------------------------------------------

   CUMULATIVE VOLUMES               L**3   RATES FOR THIS TIME STEP           L**3/T
   ------------------                      ------------------------

                                     IN                                         IN
                                     --                                         --
        PRECIPITATION =        1.8318D+07          PRECIPITATION =          50869.96
           STREAMFLOW =                               STREAMFLOW =                  
     GW BOUNDARY FLOW =                         GW BOUNDARY FLOW =                  


                                    OUT                                        OUT
                                    ---                                        ---
   EVAPOTRANSPIRATION =        1.2778D+07     EVAPOTRANSPIRATION =          69285.65
           STREAMFLOW =        6190211.29             STREAMFLOW =           7757.22
     GW BOUNDARY FLOW =         177998.36       GW BOUNDARY FLOW =            722.65

   INFLOWS - OUTFLOWS =        -827722.32     INFLOWS - OUTFLOWS =         -26895.56
             --------                                   --------

 TOTAL STORAGE CHANGE =        -824515.00         STORAGE CHANGE =         -26888.42
       --------------                             --------------
         LAND SURFACE =          61812.20           LAND SURFACE =          30830.75
            SOIL ZONE =         898895.61              SOIL ZONE =         -35652.57
     UNSATURATED ZONE =        -900030.43       UNSATURATED ZONE =         -13584.81
       SATURATED ZONE =        -885192.39         SATURATED ZONE =          -8481.79

 OVERALL BUDGET ERROR =          -3207.32           BUDGET ERROR =             -7.14


  PERCENT DISCREPANCY =             -0.02    PERCENT DISCREPANCY =             -0.01



1
 SUMMARY VOLUMETRIC BUDGET FOR GSFLOW 
 DATE: 06 09 1981              CUMULATIVE TIME STEP:     252
 MODFLOW STRESS PERIOD      2     CURRENT TIME STEP:     252     ITERATIONS:       9

 -----------------------------------------------------------------------------------

   CUMULATIVE VOLUMES               L**3   RATES FOR THIS TIME STEP           L**3/T
   ------------------                      ------------------------

                                     IN                                         IN
                                     --                                         --
        PRECIPITATION =        1.8318D+07          PRECIPITATION =                  
           STREAMFLOW =                               STREAMFLOW =                  
     GW BOUNDARY FLOW =                         GW BOUNDARY FLOW =                  


                                    OUT                                        OUT
                                    ---                                        ---
   EVAPOTRANSPIRATION =        1.3270D+07     EVAPOTRANSPIRATION =          51332.92
           STREAMFLOW =        6237952.30             STREAMFLOW =           6426.90
     GW BOUNDARY FLOW =         183054.27       GW BOUNDARY FLOW =            722.07

   INFLOWS - OUTFLOWS =       -1372637.74     INFLOWS - OUTFLOWS =         -58481.90
             --------                                   --------

 TOTAL STORAGE CHANGE =       -1369381.42         STORAGE CHANGE =         -58475.31
       --------------                             --------------
         LAND SURFACE =           8252.08           LAND SURFACE =          -1595.17
            SOIL ZONE =         563082.16              SOIL ZONE =         -34630.40
     UNSATURATED ZONE =        -994211.82       UNSATURATED ZONE =         -13438.71
       SATURATED ZONE =        -946503.85         SATURATED ZONE =          -8811.02

 OVERALL BUDGET ERROR =          -3256.32           BUDGET ERROR =             -6.59


  PERCENT DISCREPANCY =             -0.02    PERCENT DISCREPANCY =             -0.01



1
 SUMMARY VOLUMETRIC BUDGET FOR GSFLOW 
 DATE: 06 16 1981              CUMULATIVE TIME STEP:     259
 MODFLOW STRESS PERIOD      2     CURRENT TIME STEP:     259     ITERATIONS:      10

 -----------------------------------------------------------------------------------

   CUMULATIVE VOLUMES               L**3   RATES FOR THIS TIME STEP           L**3/T
   ------------------                      ------------------------

                                     IN                                         IN
                                     --                                         --
        PRECIPITATION =        1.8318D+07          PRECIPITATION =                  
           STREAMFLOW =                               STREAMFLOW =                  
     GW BOUNDARY FLOW =                         GW BOUNDARY FLOW =                  


                                    OUT                                        OUT
                                    ---                                        ---
   EVAPOTRANSPIRATION =        1.3461D+07     EVAPOTRANSPIRATION =          44886.43
           STREAMFLOW =        6281646.74             STREAMFLOW =           6167.68
     GW BOUNDARY FLOW =         188107.74       GW BOUNDARY FLOW =            721.84

   INFLOWS - OUTFLOWS =       -1612279.88     INFLOWS - OUTFLOWS =         -51775.94
             --------                                   --------

 TOTAL STORAGE CHANGE =       -1608977.06         STORAGE CHANGE =         -51769.36
       --------------                             --------------
         LAND SURFACE =           3425.60           LAND SURFACE =           -943.52
            SOIL ZONE =         482753.10              SOIL ZONE =         -28902.45
     UNSATURATED ZONE =       -1085509.81       UNSATURATED ZONE =         -12634.25
       SATURATED ZONE =       -1009645.96         SATURATED ZONE =          -9289.14

 OVERALL BUDGET ERROR =          -3302.82           BUDGET ERROR =             -6.58


  PERCENT DISCREPANCY =             -0.02    PERCENT DISCREPANCY =             -0.01



1
 SUMMARY VOLUMETRIC BUDGET FOR GSFLOW 
 DATE: 06 23 1981              CUMULATIVE TIME STEP:     266
 MODFLOW STRESS PERIOD      2     CURRENT TIME STEP:     266     ITERATIONS:       9

 -----------------------------------------------------------------------------------

   CUMULATIVE VOLUMES               L**3   RATES FOR THIS TIME STEP           L**3/T
   ------------------                      ------------------------

                                     IN                                         IN
                                     --                                         --
        PRECIPITATION =        1.8318D+07          PRECIPITATION =                  
           STREAMFLOW =                               STREAMFLOW =                  
     GW BOUNDARY FLOW =                         GW BOUNDARY FLOW =                  


                                    OUT                                        OUT
                                    ---                                        ---
   EVAPOTRANSPIRATION =        1.3758D+07     EVAPOTRANSPIRATION =          34722.01
           STREAMFLOW =        6323808.86             STREAMFLOW =           5947.25
     GW BOUNDARY FLOW =         193159.76       GW BOUNDARY FLOW =            721.62

   INFLOWS - OUTFLOWS =       -1956394.46     INFLOWS - OUTFLOWS =         -41390.87
             --------                                   --------

 TOTAL STORAGE CHANGE =       -1953045.64         STORAGE CHANGE =         -41384.20
       --------------                             --------------
         LAND SURFACE =                             LAND SURFACE =                  
            SOIL ZONE =         294396.81              SOIL ZONE =         -19752.34
     UNSATURATED ZONE =       -1169882.15       UNSATURATED ZONE =         -11537.30
       SATURATED ZONE =       -1077560.30         SATURATED ZONE =         -10094.57

 OVERALL BUDGET ERROR =          -3348.82           BUDGET ERROR =             -6.66


  PERCENT DISCREPANCY =             -0.02    PERCENT DISCREPANCY =             -0.02



1
 SUMMARY VOLUMETRIC BUDGET FOR GSFLOW 
 DATE: 06 30 1981              CUMULATIVE TIME STEP:     273
 MODFLOW STRESS PERIOD      2     CURRENT TIME STEP:     273     ITERATIONS:       7

 -----------------------------------------------------------------------------------

   CUMULATIVE VOLUMES               L**3   RATES FOR THIS TIME STEP           L**3/T
   ------------------                      ------------------------

                                     IN                                         IN
[...]
     GW BOUNDARY FLOW =        4176787.22       GW BOUNDARY FLOW =            725.86

   INFLOWS - OUTFLOWS =       -7139283.01     INFLOWS - OUTFLOWS =         -53435.40
             --------                                   --------

 TOTAL STORAGE CHANGE =       -7117307.97         STORAGE CHANGE =         -53433.38
       --------------                             --------------
         LAND SURFACE =          84495.33           LAND SURFACE =          -4962.88
            SOIL ZONE =         277721.98              SOIL ZONE =         -26628.78
     UNSATURATED ZONE =        4994831.07       UNSATURATED ZONE =         -28466.95
       SATURATED ZONE =       -1.2474D+07         SATURATED ZONE =           6625.23

 OVERALL BUDGET ERROR =         -21975.03           BUDGET ERROR =             -2.03


  PERCENT DISCREPANCY =             -0.00    PERCENT DISCREPANCY =             -0.00



1
 SUMMARY VOLUMETRIC BUDGET FOR GSFLOW 
 DATE: 07 30 1996              CUMULATIVE TIME STEP:    5782
 MODFLOW STRESS PERIOD      2     CURRENT TIME STEP:    5782     ITERATIONS:       9

 -----------------------------------------------------------------------------------

   CUMULATIVE VOLUMES               L**3   RATES FOR THIS TIME STEP           L**3/T
   ------------------                      ------------------------

                                     IN                                         IN
                                     --                                         --
        PRECIPITATION =        4.6511D+08          PRECIPITATION =                  
           STREAMFLOW =                               STREAMFLOW =                  
     GW BOUNDARY FLOW =                         GW BOUNDARY FLOW =                  


                                    OUT                                        OUT
                                    ---                                        ---
   EVAPOTRANSPIRATION =        2.8401D+08     EVAPOTRANSPIRATION =          30860.63
           STREAMFLOW =        1.8434D+08             STREAMFLOW =           6909.71
     GW BOUNDARY FLOW =        4181866.31       GW BOUNDARY FLOW =            725.47

   INFLOWS - OUTFLOWS =       -7413422.72     INFLOWS - OUTFLOWS =         -38495.82
             --------                                   --------

 TOTAL STORAGE CHANGE =       -7391440.69         STORAGE CHANGE =         -38498.42
       --------------                             --------------
         LAND SURFACE =          55405.90           LAND SURFACE =          -3487.93
            SOIL ZONE =         184120.56              SOIL ZONE =         -13515.23
     UNSATURATED ZONE =        4802341.33       UNSATURATED ZONE =         -27279.78
       SATURATED ZONE =       -1.2433D+07         SATURATED ZONE =           5784.52

 OVERALL BUDGET ERROR =         -21982.03           BUDGET ERROR =              2.61


  PERCENT DISCREPANCY =             -0.00    PERCENT DISCREPANCY =              0.01



1
 SUMMARY VOLUMETRIC BUDGET FOR GSFLOW 
 DATE: 08 06 1996              CUMULATIVE TIME STEP:    5789
 MODFLOW STRESS PERIOD      2     CURRENT TIME STEP:    5789     ITERATIONS:      10

 -----------------------------------------------------------------------------------

   CUMULATIVE VOLUMES               L**3   RATES FOR THIS TIME STEP           L**3/T
   ------------------                      ------------------------

                                     IN                                         IN
                                     --                                         --
        PRECIPITATION =        4.6511D+08          PRECIPITATION =                  
           STREAMFLOW =                               STREAMFLOW =                  
     GW BOUNDARY FLOW =                         GW BOUNDARY FLOW =                  


                                    OUT                                        OUT
                                    ---                                        ---
   EVAPOTRANSPIRATION =        2.8415D+08     EVAPOTRANSPIRATION =          21564.44
           STREAMFLOW =        1.8438D+08             STREAMFLOW =           6695.50
     GW BOUNDARY FLOW =        4186943.94       GW BOUNDARY FLOW =            725.29

   INFLOWS - OUTFLOWS =       -7613001.87     INFLOWS - OUTFLOWS =         -28985.23
             --------                                   --------

 TOTAL STORAGE CHANGE =       -7591006.23         STORAGE CHANGE =         -28983.30
       --------------                             --------------
         LAND SURFACE =          37062.04           LAND SURFACE =          -2253.66
            SOIL ZONE =         152041.36              SOIL ZONE =          -5559.39
     UNSATURATED ZONE =        4613671.07       UNSATURATED ZONE =         -26591.16
       SATURATED ZONE =       -1.2394D+07         SATURATED ZONE =           5420.91

 OVERALL BUDGET ERROR =         -21995.65           BUDGET ERROR =             -1.93


  PERCENT DISCREPANCY =             -0.00    PERCENT DISCREPANCY =             -0.01



1
 SUMMARY VOLUMETRIC BUDGET FOR GSFLOW 
 DATE: 08 13 1996              CUMULATIVE TIME STEP:    5796
 MODFLOW STRESS PERIOD      2     CURRENT TIME STEP:    5796     ITERATIONS:      11

 -----------------------------------------------------------------------------------

   CUMULATIVE VOLUMES               L**3   RATES FOR THIS TIME STEP           L**3/T
   ------------------                      ------------------------

                                     IN                                         IN
                                     --                                         --
        PRECIPITATION =        4.6531D+08          PRECIPITATION =          54454.08
           STREAMFLOW =                               STREAMFLOW =                  
     GW BOUNDARY FLOW =                         GW BOUNDARY FLOW =                  


                                    OUT                                        OUT
                                    ---                                        ---
   EVAPOTRANSPIRATION =        2.8433D+08     EVAPOTRANSPIRATION =          32647.71
           STREAMFLOW =        1.8443D+08             STREAMFLOW =           7897.77
     GW BOUNDARY FLOW =        4192020.26       GW BOUNDARY FLOW =            725.20

   INFLOWS - OUTFLOWS =       -7641318.47     INFLOWS - OUTFLOWS =          13183.40
             --------                                   --------

 TOTAL STORAGE CHANGE =       -7619316.09         STORAGE CHANGE =          13188.37
       --------------                             --------------
         LAND SURFACE =          53162.52           LAND SURFACE =          -2312.39
            SOIL ZONE =         254313.93              SOIL ZONE =          36265.97
     UNSATURATED ZONE =        4436230.54       UNSATURATED ZONE =         -24709.03
       SATURATED ZONE =       -1.2363D+07         SATURATED ZONE =           3943.82

 OVERALL BUDGET ERROR =         -22002.38           BUDGET ERROR =             -4.97


  PERCENT DISCREPANCY =             -0.00    PERCENT DISCREPANCY =             -0.01



1
 SUMMARY VOLUMETRIC BUDGET FOR GSFLOW 
 DATE: 08 20 1996              CUMULATIVE TIME STEP:    5803
 MODFLOW STRESS PERIOD      2     CURRENT TIME STEP:    5803     ITERATIONS:       9

 -----------------------------------------------------------------------------------

   CUMULATIVE VOLUMES               L**3   RATES FOR THIS TIME STEP           L**3/T
   ------------------                      ------------------------

                                     IN                                         IN
                                     --                                         --
        PRECIPITATION =        4.6531D+08          PRECIPITATION =                  
           STREAMFLOW =                               STREAMFLOW =                  
     GW BOUNDARY FLOW =                         GW BOUNDARY FLOW =                  


                                    OUT                                        OUT
                                    ---                                        ---
   EVAPOTRANSPIRATION =        2.8453D+08     EVAPOTRANSPIRATION =          18012.20
           STREAMFLOW =        1.8448D+08             STREAMFLOW =           6486.33
     GW BOUNDARY FLOW =        4197094.59       GW BOUNDARY FLOW =            724.69

   INFLOWS - OUTFLOWS =       -7891614.56     INFLOWS - OUTFLOWS =         -25223.23
             --------                                   --------

 TOTAL STORAGE CHANGE =       -7869596.62         STORAGE CHANGE =         -25223.85
       --------------                             --------------
         LAND SURFACE =           6921.38           LAND SURFACE =          -1297.31
            SOIL ZONE =         195362.42              SOIL ZONE =          -3310.75
     UNSATURATED ZONE =        4266555.83       UNSATURATED ZONE =         -23791.93
       SATURATED ZONE =       -1.2338D+07         SATURATED ZONE =           3176.14

 OVERALL BUDGET ERROR =         -22017.94           BUDGET ERROR =              0.62


  PERCENT DISCREPANCY =             -0.00    PERCENT DISCREPANCY =              0.00



1
 SUMMARY VOLUMETRIC BUDGET FOR GSFLOW 
 DATE: 08 27 1996              CUMULATIVE TIME STEP:    5810
 MODFLOW STRESS PERIOD      2     CURRENT TIME STEP:    5810     ITERATIONS:       9

 -----------------------------------------------------------------------------------

   CUMULATIVE VOLUMES               L**3   RATES FOR THIS TIME STEP           L**3/T
   ------------------                      ------------------------

                                     IN                                         IN
                                     --                                         --
        PRECIPITATION =        4.6531D+08          PRECIPITATION =                  
           STREAMFLOW =                               STREAMFLOW =                  
     GW BOUNDARY FLOW =                         GW BOUNDARY FLOW =                  


                                    OUT                                        OUT
                                    ---                                        ---
   EVAPOTRANSPIRATION =        2.8467D+08     EVAPOTRANSPIRATION =          15664.81
           STREAMFLOW =        1.8452D+08             STREAMFLOW =           6320.00
     GW BOUNDARY FLOW =        4202165.63       GW BOUNDARY FLOW =            724.25

   INFLOWS - OUTFLOWS =       -8081762.54     INFLOWS - OUTFLOWS =         -22709.05
             --------                                   --------

 TOTAL STORAGE CHANGE =       -8059745.78         STORAGE CHANGE =         -22709.54
       --------------                             --------------
         LAND SURFACE =           1243.96           LAND SURFACE =           -271.65
            SOIL ZONE =         154148.11              SOIL ZONE =          -2081.16
     UNSATURATED ZONE =        4105398.82       UNSATURATED ZONE =         -22852.44
       SATURATED ZONE =       -1.2321D+07         SATURATED ZONE =           2495.71

 OVERALL BUDGET ERROR =         -22016.76           BUDGET ERROR =              0.49


  PERCENT DISCREPANCY =             -0.00    PERCENT DISCREPANCY =              0.00



1
 SUMMARY VOLUMETRIC BUDGET FOR GSFLOW 
 DATE: 09 03 1996              CUMULATIVE TIME STEP:    5817
 MODFLOW STRESS PERIOD      2     CURRENT TIME STEP:    5817     ITERATIONS:       8

 -----------------------------------------------------------------------------------

   CUMULATIVE VOLUMES               L**3   RATES FOR THIS TIME STEP           L**3/T
   ------------------                      ------------------------

                                     IN                                         IN
                                     --                                         --
        PRECIPITATION =        4.6531D+08          PRECIPITATION =                  
           STREAMFLOW =                               STREAMFLOW =                  
     GW BOUNDARY FLOW =                         GW BOUNDARY FLOW =                  


                                    OUT                                        OUT
                                    ---                                        ---
   EVAPOTRANSPIRATION =        2.8478D+08     EVAPOTRANSPIRATION =          12480.33
           STREAMFLOW =        1.8457D+08             STREAMFLOW =           6213.66
     GW BOUNDARY FLOW =        4207233.52       GW BOUNDARY FLOW =            723.80

   INFLOWS - OUTFLOWS =       -8237231.53     INFLOWS - OUTFLOWS =         -19417.78
             --------                                   --------

 TOTAL STORAGE CHANGE =       -8215226.63         STORAGE CHANGE =         -19423.56
       --------------                             --------------
         LAND SURFACE =            583.76           LAND SURFACE =            -75.05
            SOIL ZONE =         140872.10              SOIL ZONE =            774.88
     UNSATURATED ZONE =        3950042.75       UNSATURATED ZONE =         -21825.33
       SATURATED ZONE =       -1.2307D+07         SATURATED ZONE =           1701.94

 OVERALL BUDGET ERROR =         -22004.89           BUDGET ERROR =              5.78


  PERCENT DISCREPANCY =             -0.00    PERCENT DISCREPANCY =              0.03



1
 SUMMARY VOLUMETRIC BUDGET FOR GSFLOW 
 DATE: 09 10 1996              CUMULATIVE TIME STEP:    5824
 MODFLOW STRESS PERIOD      2     CURRENT TIME STEP:    5824     ITERATIONS:       8

 -----------------------------------------------------------------------------------

   CUMULATIVE VOLUMES               L**3   RATES FOR THIS TIME STEP           L**3/T
   ------------------                      ------------------------

                                     IN                                         IN
                                     --                                         --
        PRECIPITATION =        4.6531D+08          PRECIPITATION =                  
           STREAMFLOW =                               STREAMFLOW =                  
     GW BOUNDARY FLOW =                         GW BOUNDARY FLOW =                  


                                    OUT                                        OUT
                                    ---                                        ---
   EVAPOTRANSPIRATION =        2.8486D+08     EVAPOTRANSPIRATION =          13707.05
           STREAMFLOW =        1.8461D+08             STREAMFLOW =           6117.96
     GW BOUNDARY FLOW =        4212298.36       GW BOUNDARY FLOW =            723.36

   INFLOWS - OUTFLOWS =       -8371939.01     INFLOWS - OUTFLOWS =         -20548.37
             --------                                   --------

 TOTAL STORAGE CHANGE =       -8349968.55         STORAGE CHANGE =         -20552.61
       --------------                             --------------
         LAND SURFACE =            141.35           LAND SURFACE =            -69.28
            SOIL ZONE =         146519.54              SOIL ZONE =           -587.71
     UNSATURATED ZONE =        3801926.53       UNSATURATED ZONE =         -20621.94
       SATURATED ZONE =       -1.2299D+07         SATURATED ZONE =            726.33

 OVERALL BUDGET ERROR =         -21970.47           BUDGET ERROR =              4.23


  PERCENT DISCREPANCY =             -0.00    PERCENT DISCREPANCY =              0.02



1
 SUMMARY VOLUMETRIC BUDGET FOR GSFLOW 
 DATE: 09 17 1996              CUMULATIVE TIME STEP:    5831
 MODFLOW STRESS PERIOD      2     CURRENT TIME STEP:    5831     ITERATIONS:      11

 -----------------------------------------------------------------------------------

   CUMULATIVE VOLUMES               L**3   RATES FOR THIS TIME STEP           L**3/T
   ------------------                      ------------------------

                                     IN                                         IN
                                     --                                         --
        PRECIPITATION =        4.6637D+08          PRECIPITATION =                  
           STREAMFLOW =                               STREAMFLOW =                  
     GW BOUNDARY FLOW =                         GW BOUNDARY FLOW =                  


                                    OUT                                        OUT
                                    ---                                        ---
   EVAPOTRANSPIRATION =        2.8504D+08     EVAPOTRANSPIRATION =          58054.02
           STREAMFLOW =        1.8468D+08             STREAMFLOW =          10259.35
     GW BOUNDARY FLOW =        4217362.81       GW BOUNDARY FLOW =            723.95

   INFLOWS - OUTFLOWS =       -7567347.12     INFLOWS - OUTFLOWS =         -69037.32
             --------                                   --------

 TOTAL STORAGE CHANGE =       -7545389.58         STORAGE CHANGE =         -69032.87
       --------------                             --------------
         LAND SURFACE =           3348.24           LAND SURFACE =         -35098.95
            SOIL ZONE =        1084308.54              SOIL ZONE =         -14261.76
     UNSATURATED ZONE =        3659873.07       UNSATURATED ZONE =         -19955.04
       SATURATED ZONE =       -1.2293D+07         SATURATED ZONE =            282.88

 OVERALL BUDGET ERROR =         -21957.54           BUDGET ERROR =             -4.46


  PERCENT DISCREPANCY =             -0.00    PERCENT DISCREPANCY =             -0.01



1
 SUMMARY VOLUMETRIC BUDGET FOR GSFLOW 
 DATE: 09 24 1996              CUMULATIVE TIME STEP:    5838
 MODFLOW STRESS PERIOD      2     CURRENT TIME STEP:    5838     ITERATIONS:      10

 -----------------------------------------------------------------------------------

   CUMULATIVE VOLUMES               L**3   RATES FOR THIS TIME STEP           L**3/T
   ------------------                      ------------------------

                                     IN                                         IN
                                     --                                         --
        PRECIPITATION =        4.6637D+08          PRECIPITATION =                  
           STREAMFLOW =                               STREAMFLOW =                  
     GW BOUNDARY FLOW =                         GW BOUNDARY FLOW =                  


                                    OUT                                        OUT
                                    ---                                        ---
   EVAPOTRANSPIRATION =        2.8551D+08     EVAPOTRANSPIRATION =          54376.17
           STREAMFLOW =        1.8473D+08             STREAMFLOW =           6730.11
     GW BOUNDARY FLOW =        4222425.67       GW BOUNDARY FLOW =            722.87

   INFLOWS - OUTFLOWS =       -8099270.80     INFLOWS - OUTFLOWS =         -61829.15
             --------                                   --------

 TOTAL STORAGE CHANGE =       -8077286.24         STORAGE CHANGE =         -61825.86
       --------------                             --------------
         LAND SURFACE =                             LAND SURFACE =                  
            SOIL ZONE =         692717.71              SOIL ZONE =         -42342.41
     UNSATURATED ZONE =        3523870.62       UNSATURATED ZONE =         -19019.67
       SATURATED ZONE =       -1.2294D+07         SATURATED ZONE =           -463.78

 OVERALL BUDGET ERROR =         -21984.56           BUDGET ERROR =             -3.29


  PERCENT DISCREPANCY =             -0.00    PERCENT DISCREPANCY =             -0.01



 Number of time steps:   5844;  Number of non-convergence:   0
 MF iterations:         45409;  SZ iterations:           45409
 Average MF iterations:  7.77;  Average SZ iterations:    7.77
 Maximum MF iterations:    24;  Maximum SZ iterations:      24

