1
 SUMMARY VOLUMETRIC BUDGET FOR GSFLOW 
 DATE: 10 07 1980              CUMULATIVE TIME STEP:       7
 MODFLOW STRESS PERIOD      2     CURRENT TIME STEP:       7     ITERATIONS:       4

 -----------------------------------------------------------------------------------

   CUMULATIVE VOLUMES               L**3   RATES FOR THIS TIME STEP           L**3/T
   ------------------                      ------------------------

                                     IN                                         IN
                                     --                                         --
        PRECIPITATION =                            PRECIPITATION =                  
           STREAMFLOW =                               STREAMFLOW =                  
     GW BOUNDARY FLOW =                         GW BOUNDARY FLOW =                  


                                    OUT                                        OUT
                                    ---                                        ---
   EVAPOTRANSPIRATION =          65406.41     EVAPOTRANSPIRATION =           9159.83
           STREAMFLOW =          43081.79             STREAMFLOW =           6083.36
     GW BOUNDARY FLOW =           5067.91       GW BOUNDARY FLOW =            723.89

   INFLOWS - OUTFLOWS =        -113556.10     INFLOWS - OUTFLOWS =         -15967.09
             --------                                   --------

 TOTAL STORAGE CHANGE =        -113321.97         STORAGE CHANGE =         -15932.84
       --------------                             --------------
         LAND SURFACE =                             LAND SURFACE =                  
            SOIL ZONE =          45038.79              SOIL ZONE =           6526.75
     UNSATURATED ZONE =        -144965.30       UNSATURATED ZONE =         -20382.35
       SATURATED ZONE =         -13395.46         SATURATED ZONE =          -2077.23

 OVERALL BUDGET ERROR =           -234.13           BUDGET ERROR =            -34.25


  PERCENT DISCREPANCY =             -0.21    PERCENT DISCREPANCY =             -0.21



1
 SUMMARY VOLUMETRIC BUDGET FOR GSFLOW 
 DATE: 10 14 1980              CUMULATIVE TIME STEP:      14
 MODFLOW STRESS PERIOD      2     CURRENT TIME STEP:      14     ITERATIONS:       4

 -----------------------------------------------------------------------------------

   CUMULATIVE VOLUMES               L**3   RATES FOR THIS TIME STEP           L**3/T
   ------------------                      ------------------------

                                     IN                                         IN
                                     --                                         --
        PRECIPITATION =         650779.83          PRECIPITATION =         164754.40
           STREAMFLOW =                               STREAMFLOW =                  
     GW BOUNDARY FLOW =                         GW BOUNDARY FLOW =                  


                                    OUT                                        OUT
                                    ---                                        ---
   EVAPOTRANSPIRATION =         160753.81     EVAPOTRANSPIRATION =          11473.42
           STREAMFLOW =          94488.96             STREAMFLOW =           7705.41
     GW BOUNDARY FLOW =          10135.83       GW BOUNDARY FLOW =            724.16

   INFLOWS - OUTFLOWS =         385401.24     INFLOWS - OUTFLOWS =         144851.40
             --------                                   --------

 TOTAL STORAGE CHANGE =         385869.44         STORAGE CHANGE =         144886.61
       --------------                             --------------
         LAND SURFACE =         183750.31           LAND SURFACE =         130549.56
            SOIL ZONE =         515527.96              SOIL ZONE =          36439.20
     UNSATURATED ZONE =        -284675.81       UNSATURATED ZONE =         -19601.72
       SATURATED ZONE =         -28733.02         SATURATED ZONE =          -2500.44

 OVERALL BUDGET ERROR =           -468.20           BUDGET ERROR =            -35.20


  PERCENT DISCREPANCY =             -0.07    PERCENT DISCREPANCY =             -0.02



1
 SUMMARY VOLUMETRIC BUDGET FOR GSFLOW 
 DATE: 10 21 1980              CUMULATIVE TIME STEP:      21
 MODFLOW STRESS PERIOD      2     CURRENT TIME STEP:      21     ITERATIONS:       5

 -----------------------------------------------------------------------------------

   CUMULATIVE VOLUMES               L**3   RATES FOR THIS TIME STEP           L**3/T
   ------------------                      ------------------------

                                     IN                                         IN
                                     --                                         --
        PRECIPITATION =         733157.03          PRECIPITATION =                  
           STREAMFLOW =                               STREAMFLOW =                  
     GW BOUNDARY FLOW =                         GW BOUNDARY FLOW =                  


                                    OUT                                        OUT
                                    ---                                        ---
   EVAPOTRANSPIRATION =         396087.83     EVAPOTRANSPIRATION =          34274.78
           STREAMFLOW =         145903.53             STREAMFLOW =           6948.41
     GW BOUNDARY FLOW =          15204.01       GW BOUNDARY FLOW =            723.92

   INFLOWS - OUTFLOWS =         175961.66     INFLOWS - OUTFLOWS =         -41947.11
             --------                                   --------

 TOTAL STORAGE CHANGE =         176650.06         STORAGE CHANGE =         -41916.88
       --------------                             --------------
         LAND SURFACE =                             LAND SURFACE =                  
            SOIL ZONE =         643809.02              SOIL ZONE =         -19953.88
     UNSATURATED ZONE =        -418560.01       UNSATURATED ZONE =         -18774.38
       SATURATED ZONE =         -48598.95         SATURATED ZONE =          -3188.63

 OVERALL BUDGET ERROR =           -688.41           BUDGET ERROR =            -30.23


  PERCENT DISCREPANCY =             -0.09    PERCENT DISCREPANCY =             -0.07



1
 SUMMARY VOLUMETRIC BUDGET FOR GSFLOW 
 DATE: 10 28 1980              CUMULATIVE TIME STEP:      28
 MODFLOW STRESS PERIOD      2     CURRENT TIME STEP:      28     ITERATIONS:       5

 -----------------------------------------------------------------------------------

   CUMULATIVE VOLUMES               L**3   RATES FOR THIS TIME STEP           L**3/T
   ------------------                      ------------------------

                                     IN                                         IN
                                     --                                         --
        PRECIPITATION =        1070903.53          PRECIPITATION =                  
           STREAMFLOW =                               STREAMFLOW =                  
     GW BOUNDARY FLOW =                         GW BOUNDARY FLOW =                  


                                    OUT                                        OUT
                                    ---                                        ---
   EVAPOTRANSPIRATION =         581278.68     EVAPOTRANSPIRATION =          24800.27
           STREAMFLOW =         200730.32             STREAMFLOW =           8027.55
     GW BOUNDARY FLOW =          20271.64       GW BOUNDARY FLOW =            724.02

   INFLOWS - OUTFLOWS =         268622.88     INFLOWS - OUTFLOWS =         -33551.84
             --------                                   --------

 TOTAL STORAGE CHANGE =         269518.41         STORAGE CHANGE =         -33522.02
       --------------                             --------------
         LAND SURFACE =          20571.53           LAND SURFACE =         -29890.85
            SOIL ZONE =         867978.91              SOIL ZONE =          17957.09
     UNSATURATED ZONE =        -546604.22       UNSATURATED ZONE =         -17920.17
       SATURATED ZONE =         -72427.81         SATURATED ZONE =          -3668.09

 OVERALL BUDGET ERROR =           -895.52           BUDGET ERROR =            -29.82


  PERCENT DISCREPANCY =             -0.08    PERCENT DISCREPANCY =             -0.09



1
 SUMMARY VOLUMETRIC BUDGET FOR GSFLOW 
 DATE: 11 04 1980              CUMULATIVE TIME STEP:      35
 MODFLOW STRESS PERIOD      2     CURRENT TIME STEP:      35     ITERATIONS:       6

 -----------------------------------------------------------------------------------

   CUMULATIVE VOLUMES               L**3   RATES FOR THIS TIME STEP           L**3/T
   ------------------                      ------------------------

                                     IN                                         IN
                                     --                                         --
        PRECIPITATION =        1070903.53          PRECIPITATION =                  
           STREAMFLOW =                               STREAMFLOW =                  
     GW BOUNDARY FLOW =                         GW BOUNDARY FLOW =                  


                                    OUT                                        OUT
                                    ---                                        ---
   EVAPOTRANSPIRATION =         912103.12     EVAPOTRANSPIRATION =          46605.52
           STREAMFLOW =         253776.96             STREAMFLOW =           7120.36
     GW BOUNDARY FLOW =          25338.99       GW BOUNDARY FLOW =            723.82

   INFLOWS - OUTFLOWS =        -120315.55     INFLOWS - OUTFLOWS =         -54449.71
             --------                                   --------

 TOTAL STORAGE CHANGE =        -119220.15         STORAGE CHANGE =         -54423.31
       --------------                             --------------
         LAND SURFACE =                             LAND SURFACE =                  
            SOIL ZONE =         651098.96              SOIL ZONE =         -32803.28
     UNSATURATED ZONE =        -669481.21       UNSATURATED ZONE =         -17300.76
       SATURATED ZONE =        -100837.89         SATURATED ZONE =          -4319.26

 OVERALL BUDGET ERROR =          -1095.40           BUDGET ERROR =            -26.40


  PERCENT DISCREPANCY =             -0.09    PERCENT DISCREPANCY =             -0.05



1
 SUMMARY VOLUMETRIC BUDGET FOR GSFLOW 
 DATE: 11 11 1980              CUMULATIVE TIME STEP:      42
 MODFLOW STRESS PERIOD      2     CURRENT TIME STEP:      42     ITERATIONS:       5

 -----------------------------------------------------------------------------------

   CUMULATIVE VOLUMES               L**3   RATES FOR THIS TIME STEP           L**3/T
   ------------------                      ------------------------

                                     IN                                         IN
                                     --                                         --
        PRECIPITATION =        1573762.54          PRECIPITATION =         255182.19
           STREAMFLOW =                               STREAMFLOW =                  
     GW BOUNDARY FLOW =                         GW BOUNDARY FLOW =                  


                                    OUT                                        OUT
                                    ---                                        ---
   EVAPOTRANSPIRATION =        1124887.37     EVAPOTRANSPIRATION =          18433.64
           STREAMFLOW =         311113.54             STREAMFLOW =          10970.19
     GW BOUNDARY FLOW =          30406.13       GW BOUNDARY FLOW =            724.11

   INFLOWS - OUTFLOWS =         107355.51     INFLOWS - OUTFLOWS =         225054.25
             --------                                   --------

 TOTAL STORAGE CHANGE =         108652.43         STORAGE CHANGE =         225082.71
       --------------                             --------------
         LAND SURFACE =          76960.22           LAND SURFACE =          76747.38
            SOIL ZONE =         950830.72              SOIL ZONE =         168885.28
     UNSATURATED ZONE =        -787490.02       UNSATURATED ZONE =         -16457.31
       SATURATED ZONE =        -131648.48         SATURATED ZONE =          -4092.64

 OVERALL BUDGET ERROR =          -1296.93           BUDGET ERROR =            -28.46


  PERCENT DISCREPANCY =             -0.08    PERCENT DISCREPANCY =             -0.01



1
 SUMMARY VOLUMETRIC BUDGET FOR GSFLOW 
 DATE: 11 18 1980              CUMULATIVE TIME STEP:      49
 MODFLOW STRESS PERIOD      2     CURRENT TIME STEP:      49     ITERATIONS:       5

 -----------------------------------------------------------------------------------

   CUMULATIVE VOLUMES               L**3   RATES FOR THIS TIME STEP           L**3/T
   ------------------                      ------------------------

                                     IN                                         IN
                                     --                                         --
        PRECIPITATION =        1573762.54          PRECIPITATION =                  
           STREAMFLOW =                               STREAMFLOW =                  
     GW BOUNDARY FLOW =                         GW BOUNDARY FLOW =                  


                                    OUT                                        OUT
                                    ---                                        ---
   EVAPOTRANSPIRATION =        1216212.31     EVAPOTRANSPIRATION =          16359.98
           STREAMFLOW =         374769.41             STREAMFLOW =           9276.51
     GW BOUNDARY FLOW =          35474.80       GW BOUNDARY FLOW =            724.11

   INFLOWS - OUTFLOWS =         -52693.98     INFLOWS - OUTFLOWS =         -26360.59
             --------                                   --------

 TOTAL STORAGE CHANGE =         -51200.22         STORAGE CHANGE =         -26332.80
       --------------                             --------------
         LAND SURFACE =           8139.47           LAND SURFACE =          -4965.50
            SOIL ZONE =        1006771.68              SOIL ZONE =           -428.17
     UNSATURATED ZONE =        -900831.14       UNSATURATED ZONE =         -15951.72
       SATURATED ZONE =        -165280.23         SATURATED ZONE =          -4987.41

 OVERALL BUDGET ERROR =          -1493.76           BUDGET ERROR =            -27.79


  PERCENT DISCREPANCY =             -0.09    PERCENT DISCREPANCY =             -0.11



1
 SUMMARY VOLUMETRIC BUDGET FOR GSFLOW 
 DATE: 11 25 1980              CUMULATIVE TIME STEP:      56
 MODFLOW STRESS PERIOD      2     CURRENT TIME STEP:      56     ITERATIONS:       7

 -----------------------------------------------------------------------------------

   CUMULATIVE VOLUMES               L**3   RATES FOR THIS TIME STEP           L**3/T
   ------------------                      ------------------------

                                     IN                                         IN
                                     --                                         --
        PRECIPITATION =        1648816.13          PRECIPITATION =                  
           STREAMFLOW =                               STREAMFLOW =                  
     GW BOUNDARY FLOW =                         GW BOUNDARY FLOW =                  


                                    OUT                                        OUT
                                    ---                                        ---
   EVAPOTRANSPIRATION =        1298888.43     EVAPOTRANSPIRATION =           9317.10
           STREAMFLOW =         439857.53             STREAMFLOW =           9392.73
     GW BOUNDARY FLOW =          40543.59       GW BOUNDARY FLOW =            724.12

   INFLOWS - OUTFLOWS =        -130473.42     INFLOWS - OUTFLOWS =         -19433.95
             --------                                   --------

 TOTAL STORAGE CHANGE =        -128808.62         STORAGE CHANGE =         -19412.65
       --------------                             --------------
         LAND SURFACE =          54136.41           LAND SURFACE =          -9258.02
            SOIL ZONE =        1029696.06              SOIL ZONE =          10748.21
     UNSATURATED ZONE =       -1010014.41       UNSATURATED ZONE =         -15327.23
       SATURATED ZONE =        -202626.67         SATURATED ZONE =          -5575.60

 OVERALL BUDGET ERROR =          -1664.80           BUDGET ERROR =            -21.31


  PERCENT DISCREPANCY =             -0.09    PERCENT DISCREPANCY =             -0.11



1
 SUMMARY VOLUMETRIC BUDGET FOR GSFLOW 
 DATE: 12 02 1980              CUMULATIVE TIME STEP:      63
 MODFLOW STRESS PERIOD      2     CURRENT TIME STEP:      63     ITERATIONS:       5

 -----------------------------------------------------------------------------------

   CUMULATIVE VOLUMES               L**3   RATES FOR THIS TIME STEP           L**3/T
   ------------------                      ------------------------

                                     IN                                         IN
                                     --                                         --
        PRECIPITATION =        2076621.55          PRECIPITATION =                  
           STREAMFLOW =                               STREAMFLOW =                  
     GW BOUNDARY FLOW =                         GW BOUNDARY FLOW =                  


                                    OUT                                        OUT
                                    ---                                        ---
   EVAPOTRANSPIRATION =        1490974.66     EVAPOTRANSPIRATION =          34510.97
           STREAMFLOW =         516965.28             STREAMFLOW =          13627.97
     GW BOUNDARY FLOW =          45613.68       GW BOUNDARY FLOW =            724.63

   INFLOWS - OUTFLOWS =          23067.93     INFLOWS - OUTFLOWS =         -48863.57
             --------                                   --------

 TOTAL STORAGE CHANGE =          24896.61         STORAGE CHANGE =         -48836.97
       --------------                             --------------
         LAND SURFACE =         157031.20           LAND SURFACE =         -76789.76
            SOIL ZONE =        1220736.92              SOIL ZONE =          45997.97
     UNSATURATED ZONE =       -1111928.98       UNSATURATED ZONE =         -13147.39
       SATURATED ZONE =        -240942.53         SATURATED ZONE =          -4897.79

 OVERALL BUDGET ERROR =          -1828.67           BUDGET ERROR =            -26.61


  PERCENT DISCREPANCY =             -0.09    PERCENT DISCREPANCY =             -0.05



1
 SUMMARY VOLUMETRIC BUDGET FOR GSFLOW 
 DATE: 12 09 1980              CUMULATIVE TIME STEP:      70
 MODFLOW STRESS PERIOD      2     CURRENT TIME STEP:      70     ITERATIONS:       6

 -----------------------------------------------------------------------------------

   CUMULATIVE VOLUMES               L**3   RATES FOR THIS TIME STEP           L**3/T
   ------------------                      ------------------------

                                     IN                                         IN
                                     --                                         --
        PRECIPITATION =        4284363.63          PRECIPITATION =                  
           STREAMFLOW =                               STREAMFLOW =                  
     GW BOUNDARY FLOW =                         GW BOUNDARY FLOW =                  


                                    OUT                                        OUT
                                    ---                                        ---
   EVAPOTRANSPIRATION =        1516613.44     EVAPOTRANSPIRATION =           3258.35
           STREAMFLOW =         606089.43             STREAMFLOW =          13107.67
     GW BOUNDARY FLOW =          50686.73       GW BOUNDARY FLOW =            724.81

   INFLOWS - OUTFLOWS =        2110974.04     INFLOWS - OUTFLOWS =         -17090.84
             --------                                   --------

 TOTAL STORAGE CHANGE =        2112976.48         STORAGE CHANGE =         -17069.76
       --------------                             --------------
         LAND SURFACE =        2337504.39           LAND SURFACE =          -3258.35
            SOIL ZONE =        1266904.92              SOIL ZONE =           6442.46
     UNSATURATED ZONE =       -1210060.11       UNSATURATED ZONE =         -14150.83
       SATURATED ZONE =        -281372.72         SATURATED ZONE =          -6103.04

 OVERALL BUDGET ERROR =          -2002.45           BUDGET ERROR =            -21.08


  PERCENT DISCREPANCY =             -0.05    PERCENT DISCREPANCY =             -0.12



1
 SUMMARY VOLUMETRIC BUDGET FOR GSFLOW 
 DATE: 12 16 1980              CUMULATIVE TIME STEP:      77
 MODFLOW STRESS PERIOD      2     CURRENT TIME STEP:      77     ITERATIONS:       5

 -----------------------------------------------------------------------------------

   CUMULATIVE VOLUMES               L**3   RATES FOR THIS TIME STEP           L**3/T
   ------------------                      ------------------------

                                     IN                                         IN
                                     --                                         --
        PRECIPITATION =        4284363.63          PRECIPITATION =                  
           STREAMFLOW =                               STREAMFLOW =                  
     GW BOUNDARY FLOW =                         GW BOUNDARY FLOW =                  


                                    OUT                                        OUT
                                    ---                                        ---
   EVAPOTRANSPIRATION =        1661244.98     EVAPOTRANSPIRATION =          34482.61
           STREAMFLOW =         715327.50             STREAMFLOW =          22755.22
     GW BOUNDARY FLOW =          55762.34       GW BOUNDARY FLOW =            725.65

   INFLOWS - OUTFLOWS =        1852028.81     INFLOWS - OUTFLOWS =         -57963.47
             --------                                   --------

 TOTAL STORAGE CHANGE =        1854218.10         STORAGE CHANGE =         -57936.42
       --------------                             --------------
         LAND SURFACE =        2017009.25           LAND SURFACE =        -133032.47
            SOIL ZONE =        1461155.48              SOIL ZONE =          89322.69
     UNSATURATED ZONE =       -1300548.83       UNSATURATED ZONE =          -9452.57
       SATURATED ZONE =        -323397.80         SATURATED ZONE =          -4774.07

 OVERALL BUDGET ERROR =          -2189.29           BUDGET ERROR =            -27.05


  PERCENT DISCREPANCY =             -0.05    PERCENT DISCREPANCY =             -0.05



1
 SUMMARY VOLUMETRIC BUDGET FOR GSFLOW 
 DATE: 12 23 1980              CUMULATIVE TIME STEP:      84
 MODFLOW STRESS PERIOD      2     CURRENT TIME STEP:      84     ITERATIONS:       6

 -----------------------------------------------------------------------------------

   CUMULATIVE VOLUMES               L**3   RATES FOR THIS TIME STEP           L**3/T
   ------------------                      ------------------------

                                     IN                                         IN
                                     --                                         --
        PRECIPITATION =        4516757.54          PRECIPITATION =                  
           STREAMFLOW =                               STREAMFLOW =                  
     GW BOUNDARY FLOW =                         GW BOUNDARY FLOW =                  


                                    OUT                                        OUT
                                    ---                                        ---
   EVAPOTRANSPIRATION =        1869482.79     EVAPOTRANSPIRATION =          35848.50
           STREAMFLOW =         932884.08             STREAMFLOW =          29796.54
     GW BOUNDARY FLOW =          60853.14       GW BOUNDARY FLOW =            727.96

   INFLOWS - OUTFLOWS =        1653537.52     INFLOWS - OUTFLOWS =         -66373.00
             --------                                   --------

 TOTAL STORAGE CHANGE =        1655876.58         STORAGE CHANGE =         -66355.41
       --------------                             --------------
         LAND SURFACE =        1391476.45           LAND SURFACE =         -50626.27
            SOIL ZONE =        1961436.52              SOIL ZONE =          -5031.63
     UNSATURATED ZONE =       -1344392.48       UNSATURATED ZONE =          -6091.14
       SATURATED ZONE =        -352643.91         SATURATED ZONE =          -4606.37

 OVERALL BUDGET ERROR =          -2339.06           BUDGET ERROR =            -17.58


  PERCENT DISCREPANCY =             -0.05    PERCENT DISCREPANCY =             -0.03



1
 SUMMARY VOLUMETRIC BUDGET FOR GSFLOW 
 DATE: 12 30 1980              CUMULATIVE TIME STEP:      91
 MODFLOW STRESS PERIOD      2     CURRENT TIME STEP:      91     ITERATIONS:       7

 -----------------------------------------------------------------------------------

   CUMULATIVE VOLUMES               L**3   RATES FOR THIS TIME STEP           L**3/T
   ------------------                      ------------------------

                                     IN                                         IN
                                     --                                         --
        PRECIPITATION =        4516757.54          PRECIPITATION =                  
           STREAMFLOW =                               STREAMFLOW =                  
     GW BOUNDARY FLOW =                         GW BOUNDARY FLOW =                  


                                    OUT                                        OUT
                                    ---                                        ---
   EVAPOTRANSPIRATION =        2237205.05     EVAPOTRANSPIRATION =          47015.27
           STREAMFLOW =        1174209.80             STREAMFLOW =          26942.31
     GW BOUNDARY FLOW =          65953.35       GW BOUNDARY FLOW =            728.54

   INFLOWS - OUTFLOWS =        1039389.34     INFLOWS - OUTFLOWS =         -74686.12
             --------                                   --------

 TOTAL STORAGE CHANGE =        1041830.17         STORAGE CHANGE =         -74673.71
       --------------                             --------------
         LAND SURFACE =         579625.21           LAND SURFACE =         -42433.18
            SOIL ZONE =        2197635.42              SOIL ZONE =         -23857.81
     UNSATURATED ZONE =       -1356394.36       UNSATURATED ZONE =          -3952.16
       SATURATED ZONE =        -379036.10         SATURATED ZONE =          -4430.56

 OVERALL BUDGET ERROR =          -2440.83           BUDGET ERROR =            -12.41


  PERCENT DISCREPANCY =             -0.05    PERCENT DISCREPANCY =             -0.02



1
 SUMMARY VOLUMETRIC BUDGET FOR GSFLOW 
 DATE: 01 06 1981              CUMULATIVE TIME STEP:      98
 MODFLOW STRESS PERIOD      2     CURRENT TIME STEP:      98     ITERATIONS:       6

 -----------------------------------------------------------------------------------

   CUMULATIVE VOLUMES               L**3   RATES FOR THIS TIME STEP           L**3/T
   ------------------                      ------------------------

                                     IN                                         IN
                                     --                                         --
        PRECIPITATION =        5004445.43          PRECIPITATION =                  
           STREAMFLOW =                               STREAMFLOW =                  
     GW BOUNDARY FLOW =                         GW BOUNDARY FLOW =                  


                                    OUT                                        OUT
                                    ---                                        ---
   EVAPOTRANSPIRATION =        2454892.21     EVAPOTRANSPIRATION =          18975.60
           STREAMFLOW =        1319344.28             STREAMFLOW =          19828.29
     GW BOUNDARY FLOW =          71045.82       GW BOUNDARY FLOW =            726.92

   INFLOWS - OUTFLOWS =        1159163.12     INFLOWS - OUTFLOWS =         -39530.81
             --------                                   --------

 TOTAL STORAGE CHANGE =        1161697.83         STORAGE CHANGE =         -39516.67
       --------------                             --------------
         LAND SURFACE =         840075.39           LAND SURFACE =         -25549.72
            SOIL ZONE =        2167505.58              SOIL ZONE =           3749.28
     UNSATURATED ZONE =       -1427114.88       UNSATURATED ZONE =         -11466.83
       SATURATED ZONE =        -418768.26         SATURATED ZONE =          -6249.40

 OVERALL BUDGET ERROR =          -2534.71           BUDGET ERROR =            -14.14


  PERCENT DISCREPANCY =             -0.05    PERCENT DISCREPANCY =             -0.04



1
 SUMMARY VOLUMETRIC BUDGET FOR GSFLOW 
 DATE: 01 13 1981              CUMULATIVE TIME STEP:     105
 MODFLOW STRESS PERIOD      2     CURRENT TIME STEP:     105     ITERATIONS:       5

 -----------------------------------------------------------------------------------

   CUMULATIVE VOLUMES               L**3   RATES FOR THIS TIME STEP           L**3/T
   ------------------                      ------------------------

                                     IN                                         IN
                                     --                                         --
        PRECIPITATION =        5004445.43          PRECIPITATION =                  
           STREAMFLOW =                               STREAMFLOW =                  
     GW BOUNDARY FLOW =                         GW BOUNDARY FLOW =                  


                                    OUT                                        OUT
                                    ---                                        ---
   EVAPOTRANSPIRATION =        2656639.49     EVAPOTRANSPIRATION =          41908.26
           STREAMFLOW =        1462489.01             STREAMFLOW =          20011.05
     GW BOUNDARY FLOW =          76132.54       GW BOUNDARY FLOW =            726.51

   INFLOWS - OUTFLOWS =         809184.39     INFLOWS - OUTFLOWS =         -62645.83
             --------                                   --------

 TOTAL STORAGE CHANGE =         811851.96         STORAGE CHANGE =         -62625.46
       --------------                             --------------
         LAND SURFACE =         624161.64           LAND SURFACE =         -38673.92
            SOIL ZONE =        2148725.72              SOIL ZONE =          -8076.30
     UNSATURATED ZONE =       -1496413.50       UNSATURATED ZONE =          -9132.35
       SATURATED ZONE =        -464621.90         SATURATED ZONE =          -6742.89

 OVERALL BUDGET ERROR =          -2667.57           BUDGET ERROR =            -20.37


  PERCENT DISCREPANCY =             -0.05    PERCENT DISCREPANCY =             -0.03



1
 SUMMARY VOLUMETRIC BUDGET FOR GSFLOW 
 DATE: 01 20 1981              CUMULATIVE TIME STEP:     112
 MODFLOW STRESS PERIOD      2     CURRENT TIME STEP:     112     ITERATIONS:       8

 -----------------------------------------------------------------------------------

   CUMULATIVE VOLUMES               L**3   RATES FOR THIS TIME STEP           L**3/T
   ------------------                      ------------------------

                                     IN                                         IN
                                     --                                         --
        PRECIPITATION =        5170466.84          PRECIPITATION =          41505.35
           STREAMFLOW =                               STREAMFLOW =                  
     GW BOUNDARY FLOW =                         GW BOUNDARY FLOW =                  


                                    OUT                                        OUT
                                    ---                                        ---
   EVAPOTRANSPIRATION =        2922066.14     EVAPOTRANSPIRATION =          31300.55
           STREAMFLOW =        1602566.73             STREAMFLOW =          19652.72
     GW BOUNDARY FLOW =          81217.25       GW BOUNDARY FLOW =            726.31

   INFLOWS - OUTFLOWS =         564616.72     INFLOWS - OUTFLOWS =         -10174.22
             --------                                   --------

 TOTAL STORAGE CHANGE =         567390.60         STORAGE CHANGE =         -10163.72
       --------------                             --------------
         LAND SURFACE =         464145.88           LAND SURFACE =           8501.89
            SOIL ZONE =        2148792.01              SOIL ZONE =          -8671.52
     UNSATURATED ZONE =       -1532845.51       UNSATURATED ZONE =          -2988.86
       SATURATED ZONE =        -512701.78         SATURATED ZONE =          -7005.23

 OVERALL BUDGET ERROR =          -2773.88           BUDGET ERROR =            -10.51


  PERCENT DISCREPANCY =             -0.05    PERCENT DISCREPANCY =             -0.02



1
 SUMMARY VOLUMETRIC BUDGET FOR GSFLOW 
 DATE: 01 27 1981              CUMULATIVE TIME STEP:     119
 MODFLOW STRESS PERIOD      2     CURRENT TIME STEP:     119     ITERATIONS:       6

 -----------------------------------------------------------------------------------

   CUMULATIVE VOLUMES               L**3   RATES FOR THIS TIME STEP           L**3/T
   ------------------                      ------------------------

                                     IN                                         IN
                                     --                                         --
        PRECIPITATION =        8646540.08          PRECIPITATION =        2936503.63
           STREAMFLOW =                               STREAMFLOW =                  
     GW BOUNDARY FLOW =                         GW BOUNDARY FLOW =                  


                                    OUT                                        OUT
                                    ---                                        ---
   EVAPOTRANSPIRATION =        3147823.90     EVAPOTRANSPIRATION =          12639.57
           STREAMFLOW =        1744269.76             STREAMFLOW =          18365.28
     GW BOUNDARY FLOW =          86301.05       GW BOUNDARY FLOW =            726.03

   INFLOWS - OUTFLOWS =        3668145.36     INFLOWS - OUTFLOWS =        2904772.75
             --------                                   --------

 TOTAL STORAGE CHANGE =        3670998.54         STORAGE CHANGE =        2904783.69
       --------------                             --------------
         LAND SURFACE =        3592460.11           LAND SURFACE =        2923864.12
            SOIL ZONE =        2169071.69              SOIL ZONE =          -5926.28
     UNSATURATED ZONE =       -1529889.70       UNSATURATED ZONE =          -5902.91
       SATURATED ZONE =        -560643.57         SATURATED ZONE =          -7251.24

 OVERALL BUDGET ERROR =          -2853.18           BUDGET ERROR =            -10.93


  PERCENT DISCREPANCY =             -0.03    PERCENT DISCREPANCY =             -0.00



1
 SUMMARY VOLUMETRIC BUDGET FOR GSFLOW 
 DATE: 02 03 1981              CUMULATIVE TIME STEP:     126
 MODFLOW STRESS PERIOD      2     CURRENT TIME STEP:     126     ITERATIONS:       6

 -----------------------------------------------------------------------------------

   CUMULATIVE VOLUMES               L**3   RATES FOR THIS TIME STEP           L**3/T
   ------------------                      ------------------------

                                     IN                                         IN
                                     --                                         --
        PRECIPITATION =        1.1739D+07          PRECIPITATION =                  
           STREAMFLOW =                               STREAMFLOW =                  
     GW BOUNDARY FLOW =                         GW BOUNDARY FLOW =                  


                                    OUT                                        OUT
                                    ---                                        ---
   EVAPOTRANSPIRATION =        3183015.27     EVAPOTRANSPIRATION =           7106.06
           STREAMFLOW =        1869763.19             STREAMFLOW =          17860.48
     GW BOUNDARY FLOW =          91382.17       GW BOUNDARY FLOW =            725.81

   INFLOWS - OUTFLOWS =        6594528.14     INFLOWS - OUTFLOWS =         -25692.36
             --------                                   --------

 TOTAL STORAGE CHANGE =        6597474.10         STORAGE CHANGE =         -25680.52
       --------------                             --------------
         LAND SURFACE =        6649417.45           LAND SURFACE =          -7106.06
            SOIL ZONE =        2162032.78              SOIL ZONE =            600.65
     UNSATURATED ZONE =       -1598747.42       UNSATURATED ZONE =         -11081.94
       SATURATED ZONE =        -615228.71         SATURATED ZONE =          -8093.17

 OVERALL BUDGET ERROR =          -2945.96           BUDGET ERROR =            -11.84


  PERCENT DISCREPANCY =             -0.03    PERCENT DISCREPANCY =             -0.05



1
 SUMMARY VOLUMETRIC BUDGET FOR GSFLOW 
 DATE: 02 10 1981              CUMULATIVE TIME STEP:     133
 MODFLOW STRESS PERIOD      2     CURRENT TIME STEP:     133     ITERATIONS:       5

 -----------------------------------------------------------------------------------

   CUMULATIVE VOLUMES               L**3   RATES FOR THIS TIME STEP           L**3/T
   ------------------                      ------------------------

                                     IN                                         IN
                                     --                                         --
        PRECIPITATION =        1.1838D+07          PRECIPITATION =                  
           STREAMFLOW =                               STREAMFLOW =                  
     GW BOUNDARY FLOW =                         GW BOUNDARY FLOW =                  


                                    OUT                                        OUT
                                    ---                                        ---
   EVAPOTRANSPIRATION =        3304118.78     EVAPOTRANSPIRATION =          32343.27
           STREAMFLOW =        1995112.84             STREAMFLOW =          17934.27
     GW BOUNDARY FLOW =          96462.93       GW BOUNDARY FLOW =            725.82

   INFLOWS - OUTFLOWS =        6442558.72     INFLOWS - OUTFLOWS =         -51003.36
             --------                                   --------

 TOTAL STORAGE CHANGE =        6445607.89         STORAGE CHANGE =         -50984.24
       --------------                             --------------
         LAND SURFACE =        6627878.44           LAND SURFACE =         -32343.27
            SOIL ZONE =        2166409.93              SOIL ZONE =            582.93
     UNSATURATED ZONE =       -1673988.56       UNSATURATED ZONE =         -10437.90
       SATURATED ZONE =        -674691.92         SATURATED ZONE =          -8786.01

 OVERALL BUDGET ERROR =          -3049.17           BUDGET ERROR =            -19.11


  PERCENT DISCREPANCY =             -0.03    PERCENT DISCREPANCY =             -0.04



1
 SUMMARY VOLUMETRIC BUDGET FOR GSFLOW 
 DATE: 02 17 1981              CUMULATIVE TIME STEP:     140
 MODFLOW STRESS PERIOD      2     CURRENT TIME STEP:     140     ITERATIONS:      11

 -----------------------------------------------------------------------------------

   CUMULATIVE VOLUMES               L**3   RATES FOR THIS TIME STEP           L**3/T
   ------------------                      ------------------------

                                     IN                                         IN
                                     --                                         --
        PRECIPITATION =        1.2765D+07          PRECIPITATION =          68929.28
           STREAMFLOW =                               STREAMFLOW =                  
     GW BOUNDARY FLOW =                         GW BOUNDARY FLOW =                  


                                    OUT                                        OUT
                                    ---                                        ---
   EVAPOTRANSPIRATION =        3629885.67     EVAPOTRANSPIRATION =          59831.41
           STREAMFLOW =        2504869.77             STREAMFLOW =         119264.77
     GW BOUNDARY FLOW =         101570.50       GW BOUNDARY FLOW =            734.10

   INFLOWS - OUTFLOWS =        6528643.16     INFLOWS - OUTFLOWS =        -110901.00
             --------                                   --------

 TOTAL STORAGE CHANGE =        6531810.43         STORAGE CHANGE =        -110886.90
       --------------                             --------------
         LAND SURFACE =        5733342.75           LAND SURFACE =        -263707.47
            SOIL ZONE =        2938352.56              SOIL ZONE =          74350.57
     UNSATURATED ZONE =       -1444535.45       UNSATURATED ZONE =          76676.57
       SATURATED ZONE =        -695349.42         SATURATED ZONE =           1793.43

 OVERALL BUDGET ERROR =          -3167.27           BUDGET ERROR =            -14.10


  PERCENT DISCREPANCY =             -0.02    PERCENT DISCREPANCY =             -0.01



1
 SUMMARY VOLUMETRIC BUDGET FOR GSFLOW 
 DATE: 02 24 1981              CUMULATIVE TIME STEP:     147
 MODFLOW STRESS PERIOD      2     CURRENT TIME STEP:     147     ITERATIONS:       8

 -----------------------------------------------------------------------------------

   CUMULATIVE VOLUMES               L**3   RATES FOR THIS TIME STEP           L**3/T
   ------------------                      ------------------------

                                     IN                                         IN
                                     --                                         --
        PRECIPITATION =        1.3179D+07          PRECIPITATION =         344646.37
           STREAMFLOW =                               STREAMFLOW =                  
     GW BOUNDARY FLOW =                         GW BOUNDARY FLOW =                  


                                    OUT                                        OUT
                                    ---                                        ---
   EVAPOTRANSPIRATION =        3962261.77     EVAPOTRANSPIRATION =          18156.56
           STREAMFLOW =        3052099.52             STREAMFLOW =          49694.14
     GW BOUNDARY FLOW =         106704.03       GW BOUNDARY FLOW =            731.96

   INFLOWS - OUTFLOWS =        6057479.43     INFLOWS - OUTFLOWS =         276063.70
             --------                                   --------

 TOTAL STORAGE CHANGE =        6060675.05         STORAGE CHANGE =         276059.32
       --------------                             --------------
         LAND SURFACE =        5134001.57           LAND SURFACE =         302140.01
            SOIL ZONE =        2687180.52              SOIL ZONE =         -55947.55
     UNSATURATED ZONE =       -1086321.89       UNSATURATED ZONE =          27706.37
       SATURATED ZONE =        -674185.15         SATURATED ZONE =           2160.49

 OVERALL BUDGET ERROR =          -3195.62           BUDGET ERROR =              4.38


  PERCENT DISCREPANCY =             -0.02    PERCENT DISCREPANCY =              0.00



1
 SUMMARY VOLUMETRIC BUDGET FOR GSFLOW 
 DATE: 03 03 1981              CUMULATIVE TIME STEP:     154
 MODFLOW STRESS PERIOD      2     CURRENT TIME STEP:     154     ITERATIONS:       8

 -----------------------------------------------------------------------------------

   CUMULATIVE VOLUMES               L**3   RATES FOR THIS TIME STEP           L**3/T
   ------------------                      ------------------------

                                     IN                                         IN
                                     --                                         --
        PRECIPITATION =        1.3447D+07          PRECIPITATION =                  
           STREAMFLOW =                               STREAMFLOW =                  
     GW BOUNDARY FLOW =                         GW BOUNDARY FLOW =                  


                                    OUT                                        OUT
                                    ---                                        ---
   EVAPOTRANSPIRATION =        4109047.73     EVAPOTRANSPIRATION =          40644.00
           STREAMFLOW =        3270904.33             STREAMFLOW =          26941.52
     GW BOUNDARY FLOW =         111811.16       GW BOUNDARY FLOW =            728.37

   INFLOWS - OUTFLOWS =        5954839.82     INFLOWS - OUTFLOWS =         -68313.90
             --------                                   --------

 TOTAL STORAGE CHANGE =        5958000.07         STORAGE CHANGE =         -68318.13
       --------------                             --------------
         LAND SURFACE =        5236571.47           LAND SURFACE =         -57449.18
            SOIL ZONE =        2482141.06              SOIL ZONE =            486.68
     UNSATURATED ZONE =       -1080027.04       UNSATURATED ZONE =          -8776.06
       SATURATED ZONE =        -680685.43         SATURATED ZONE =          -2579.56

 OVERALL BUDGET ERROR =          -3160.25           BUDGET ERROR =              4.23


  PERCENT DISCREPANCY =             -0.02    PERCENT DISCREPANCY =              0.01



1
 SUMMARY VOLUMETRIC BUDGET FOR GSFLOW 
 DATE: 03 10 1981              CUMULATIVE TIME STEP:     161
 MODFLOW STRESS PERIOD      2     CURRENT TIME STEP:     161     ITERATIONS:       7

 -----------------------------------------------------------------------------------

   CUMULATIVE VOLUMES               L**3   RATES FOR THIS TIME STEP           L**3/T
   ------------------                      ------------------------

                                     IN                                         IN
                                     --                                         --
        PRECIPITATION =        1.3493D+07          PRECIPITATION =                  
           STREAMFLOW =                               STREAMFLOW =                  
     GW BOUNDARY FLOW =                         GW BOUNDARY FLOW =                  


                                    OUT                                        OUT
                                    ---                                        ---
   EVAPOTRANSPIRATION =        4420907.86     EVAPOTRANSPIRATION =          67192.35
           STREAMFLOW =        3490450.92             STREAMFLOW =          39958.37
     GW BOUNDARY FLOW =         116908.59       GW BOUNDARY FLOW =            728.91

   INFLOWS - OUTFLOWS =        5464673.78     INFLOWS - OUTFLOWS =        -107879.62
             --------                                   --------

 TOTAL STORAGE CHANGE =        5467817.85         STORAGE CHANGE =        -107879.79
       --------------                             --------------
         LAND SURFACE =        4665498.39           LAND SURFACE =        -147188.93
            SOIL ZONE =        2570807.08              SOIL ZONE =          24792.11
     UNSATURATED ZONE =       -1070522.62       UNSATURATED ZONE =          16110.20
       SATURATED ZONE =        -697965.00         SATURATED ZONE =          -1593.16

 OVERALL BUDGET ERROR =          -3144.07           BUDGET ERROR =              0.17


  PERCENT DISCREPANCY =             -0.02    PERCENT DISCREPANCY =              0.00



1
 SUMMARY VOLUMETRIC BUDGET FOR GSFLOW 
 DATE: 03 17 1981              CUMULATIVE TIME STEP:     168
 MODFLOW STRESS PERIOD      2     CURRENT TIME STEP:     168     ITERATIONS:       6

 -----------------------------------------------------------------------------------

   CUMULATIVE VOLUMES               L**3   RATES FOR THIS TIME STEP           L**3/T
   ------------------                      ------------------------

                                     IN                                         IN
                                     --                                         --
        PRECIPITATION =        1.3744D+07          PRECIPITATION =                  
           STREAMFLOW =                               STREAMFLOW =                  
     GW BOUNDARY FLOW =                         GW BOUNDARY FLOW =                  


                                    OUT                                        OUT
                                    ---                                        ---
   EVAPOTRANSPIRATION =        4737580.54     EVAPOTRANSPIRATION =          33262.65
           STREAMFLOW =        3705462.89             STREAMFLOW =          23461.04
     GW BOUNDARY FLOW =         122007.87       GW BOUNDARY FLOW =            727.78

   INFLOWS - OUTFLOWS =        5179439.59     INFLOWS - OUTFLOWS =         -57451.47
             --------                                   --------

 TOTAL STORAGE CHANGE =        5182570.97         STORAGE CHANGE =         -57448.38
       --------------                             --------------
         LAND SURFACE =        4532338.77           LAND SURFACE =         -32994.50
            SOIL ZONE =        2434906.83              SOIL ZONE =          -4948.93
     UNSATURATED ZONE =       -1062459.23       UNSATURATED ZONE =         -14201.12
       SATURATED ZONE =        -722215.40         SATURATED ZONE =          -5303.82

 OVERALL BUDGET ERROR =          -3131.38           BUDGET ERROR =             -3.08


  PERCENT DISCREPANCY =             -0.02    PERCENT DISCREPANCY =             -0.01



1
 SUMMARY VOLUMETRIC BUDGET FOR GSFLOW 
 DATE: 03 24 1981              CUMULATIVE TIME STEP:     175
 MODFLOW STRESS PERIOD      2     CURRENT TIME STEP:     175     ITERATIONS:       6

 -----------------------------------------------------------------------------------

   CUMULATIVE VOLUMES               L**3   RATES FOR THIS TIME STEP           L**3/T
   ------------------                      ------------------------

                                     IN                                         IN
                                     --                                         --
        PRECIPITATION =        1.4367D+07          PRECIPITATION =                  
           STREAMFLOW =                               STREAMFLOW =                  
     GW BOUNDARY FLOW =                         GW BOUNDARY FLOW =                  


                                    OUT                                        OUT
                                    ---                                        ---
   EVAPOTRANSPIRATION =        5057403.81     EVAPOTRANSPIRATION =          80764.17
           STREAMFLOW =        3869303.17             STREAMFLOW =          24897.38
     GW BOUNDARY FLOW =         127098.57       GW BOUNDARY FLOW =            727.13

   INFLOWS - OUTFLOWS =        5312939.97     INFLOWS - OUTFLOWS =        -106388.67
             --------                                   --------

 TOTAL STORAGE CHANGE =        5316103.04         STORAGE CHANGE =        -106385.38
       --------------                             --------------
         LAND SURFACE =        4882235.57           LAND SURFACE =         -56598.13
            SOIL ZONE =        2336778.71              SOIL ZONE =         -38091.07
     UNSATURATED ZONE =       -1138721.22       UNSATURATED ZONE =          -5620.27
       SATURATED ZONE =        -764190.02         SATURATED ZONE =          -6075.91

 OVERALL BUDGET ERROR =          -3163.07           BUDGET ERROR =             -3.29


  PERCENT DISCREPANCY =             -0.02    PERCENT DISCREPANCY =             -0.00



1
 SUMMARY VOLUMETRIC BUDGET FOR GSFLOW 
 DATE: 03 31 1981              CUMULATIVE TIME STEP:     182
 MODFLOW STRESS PERIOD      2     CURRENT TIME STEP:     182     ITERATIONS:       8

 -----------------------------------------------------------------------------------

   CUMULATIVE VOLUMES               L**3   RATES FOR THIS TIME STEP           L**3/T
   ------------------                      ------------------------

                                     IN                                         IN
                                     --                                         --
        PRECIPITATION =        1.5777D+07          PRECIPITATION =                  
           STREAMFLOW =                               STREAMFLOW =                  
     GW BOUNDARY FLOW =                         GW BOUNDARY FLOW =                  


                                    OUT                                        OUT
                                    ---                                        ---
   EVAPOTRANSPIRATION =        5445577.11     EVAPOTRANSPIRATION =          42424.06
           STREAMFLOW =        4314382.22             STREAMFLOW =          33404.07
     GW BOUNDARY FLOW =         132213.95       GW BOUNDARY FLOW =            729.63

   INFLOWS - OUTFLOWS =        5884574.71     INFLOWS - OUTFLOWS =         -76557.76
             --------                                   --------

 TOTAL STORAGE CHANGE =        5887734.62         STORAGE CHANGE =         -76563.58
       --------------                             --------------
         LAND SURFACE =        5101875.85           LAND SURFACE =         -42987.31
            SOIL ZONE =        2503103.66              SOIL ZONE =         -32383.92
     UNSATURATED ZONE =        -946384.92       UNSATURATED ZONE =           1477.03
       SATURATED ZONE =        -770859.97         SATURATED ZONE =          -2669.38

 OVERALL BUDGET ERROR =          -3159.91           BUDGET ERROR =              5.83


  PERCENT DISCREPANCY =             -0.02    PERCENT DISCREPANCY =              0.01



1
 SUMMARY VOLUMETRIC BUDGET FOR GSFLOW 
 DATE: 04 07 1981              CUMULATIVE TIME STEP:     189
 MODFLOW STRESS PERIOD      2     CURRENT TIME STEP:     189     ITERATIONS:       7

 -----------------------------------------------------------------------------------

   CUMULATIVE VOLUMES               L**3   RATES FOR THIS TIME STEP           L**3/T
   ------------------                      ------------------------

                                     IN                                         IN
                                     --                                         --
        PRECIPITATION =        1.6121D+07          PRECIPITATION =                  
           STREAMFLOW =                               STREAMFLOW =                  
     GW BOUNDARY FLOW =                         GW BOUNDARY FLOW =                  


                                    OUT                                        OUT
                                    ---                                        ---
   EVAPOTRANSPIRATION =        6040025.91     EVAPOTRANSPIRATION =          97287.85
           STREAMFLOW =        4607081.07             STREAMFLOW =          41839.00
     GW BOUNDARY FLOW =         137322.18       GW BOUNDARY FLOW =            730.18

   INFLOWS - OUTFLOWS =        5337038.45     INFLOWS - OUTFLOWS =        -139857.03
             --------                                   --------

 TOTAL STORAGE CHANGE =        5340180.29         STORAGE CHANGE =        -139860.23
       --------------                             --------------
         LAND SURFACE =        4536824.58           LAND SURFACE =        -138203.79
            SOIL ZONE =        2464798.68              SOIL ZONE =         -11811.97
     UNSATURATED ZONE =        -879304.00       UNSATURATED ZONE =          11362.18
       SATURATED ZONE =        -782138.96         SATURATED ZONE =          -1206.65

 OVERALL BUDGET ERROR =          -3141.85           BUDGET ERROR =              3.20


  PERCENT DISCREPANCY =             -0.02    PERCENT DISCREPANCY =              0.00



1
 SUMMARY VOLUMETRIC BUDGET FOR GSFLOW 
 DATE: 04 14 1981              CUMULATIVE TIME STEP:     196
 MODFLOW STRESS PERIOD      2     CURRENT TIME STEP:     196     ITERATIONS:       9

 -----------------------------------------------------------------------------------

   CUMULATIVE VOLUMES               L**3   RATES FOR THIS TIME STEP           L**3/T
   ------------------                      ------------------------

                                     IN                                         IN
                                     --                                         --
        PRECIPITATION =        1.6121D+07          PRECIPITATION =                  
           STREAMFLOW =                               STREAMFLOW =                  
     GW BOUNDARY FLOW =                         GW BOUNDARY FLOW =                  


                                    OUT                                        OUT
                                    ---                                        ---
   EVAPOTRANSPIRATION =        6903455.08     EVAPOTRANSPIRATION =         187136.52
           STREAMFLOW =        4942125.30             STREAMFLOW =          60481.90
     GW BOUNDARY FLOW =         142434.43       GW BOUNDARY FLOW =            730.74

   INFLOWS - OUTFLOWS =        4133452.80     INFLOWS - OUTFLOWS =        -248349.16
             --------                                   --------

 TOTAL STORAGE CHANGE =        4136587.24         STORAGE CHANGE =        -248347.69
       --------------                             --------------
         LAND SURFACE =        3249108.93           LAND SURFACE =        -276414.16
            SOIL ZONE =        2436555.29              SOIL ZONE =           -699.29
     UNSATURATED ZONE =        -763784.01       UNSATURATED ZONE =          27397.64
       SATURATED ZONE =        -785292.97         SATURATED ZONE =           1368.13

 OVERALL BUDGET ERROR =          -3134.44           BUDGET ERROR =             -1.48


  PERCENT DISCREPANCY =             -0.02    PERCENT DISCREPANCY =             -0.00



1
 SUMMARY VOLUMETRIC BUDGET FOR GSFLOW 
 DATE: 04 21 1981              CUMULATIVE TIME STEP:     203
 MODFLOW STRESS PERIOD      2     CURRENT TIME STEP:     203     ITERATIONS:       9

 -----------------------------------------------------------------------------------

   CUMULATIVE VOLUMES               L**3   RATES FOR THIS TIME STEP           L**3/T
   ------------------                      ------------------------

                                     IN                                         IN
                                     --                                         --
        PRECIPITATION =        1.6310D+07          PRECIPITATION =                  
           STREAMFLOW =                               STREAMFLOW =                  
     GW BOUNDARY FLOW =                         GW BOUNDARY FLOW =                  


                                    OUT                                        OUT
                                    ---                                        ---
   EVAPOTRANSPIRATION =        7948610.90     EVAPOTRANSPIRATION =         153795.86
           STREAMFLOW =        5326449.33             STREAMFLOW =          53537.44
     GW BOUNDARY FLOW =         147545.34       GW BOUNDARY FLOW =            729.71

   INFLOWS - OUTFLOWS =        2887637.07     INFLOWS - OUTFLOWS =        -208063.02
             --------                                   --------

 TOTAL STORAGE CHANGE =        2890763.58         STORAGE CHANGE =        -208065.24
       --------------                             --------------
         LAND SURFACE =        1941586.43           LAND SURFACE =        -141315.80
            SOIL ZONE =        2321860.11              SOIL ZONE =         -93474.19
     UNSATURATED ZONE =        -601405.18       UNSATURATED ZONE =          23657.92
       SATURATED ZONE =        -771277.79         SATURATED ZONE =           3066.83

 OVERALL BUDGET ERROR =          -3126.51           BUDGET ERROR =              2.23


  PERCENT DISCREPANCY =             -0.02    PERCENT DISCREPANCY =              0.00



1
 SUMMARY VOLUMETRIC BUDGET FOR GSFLOW 
 DATE: 04 28 1981              CUMULATIVE TIME STEP:     210
 MODFLOW STRESS PERIOD      2     CURRENT TIME STEP:     210     ITERATIONS:      10

 -----------------------------------------------------------------------------------

   CUMULATIVE VOLUMES               L**3   RATES FOR THIS TIME STEP           L**3/T
   ------------------                      ------------------------

                                     IN                                         IN
                                     --                                         --
        PRECIPITATION =        1.6515D+07          PRECIPITATION =                  
           STREAMFLOW =                               STREAMFLOW =                  
     GW BOUNDARY FLOW =                         GW BOUNDARY FLOW =                  


                                    OUT                                        OUT
                                    ---                                        ---
   EVAPOTRANSPIRATION =        9206829.44     EVAPOTRANSPIRATION =         210612.96
           STREAMFLOW =        5585293.50             STREAMFLOW =          30322.75
     GW BOUNDARY FLOW =         152642.53       GW BOUNDARY FLOW =            726.99

   INFLOWS - OUTFLOWS =        1570667.42     INFLOWS - OUTFLOWS =        -241662.70
             --------                                   --------

 TOTAL STORAGE CHANGE =        1573771.83         STORAGE CHANGE =        -241664.25
       --------------                             --------------
         LAND SURFACE =        1047886.51           LAND SURFACE =        -108965.88
            SOIL ZONE =        1828735.62              SOIL ZONE =        -137988.86
     UNSATURATED ZONE =        -543914.90       UNSATURATED ZONE =           3857.30
       SATURATED ZONE =        -758935.41         SATURATED ZONE =           1433.19

 OVERALL BUDGET ERROR =          -3104.41           BUDGET ERROR =              1.55


  PERCENT DISCREPANCY =             -0.02    PERCENT DISCREPANCY =              0.00



1
 SUMMARY VOLUMETRIC BUDGET FOR GSFLOW 
 DATE: 05 05 1981              CUMULATIVE TIME STEP:     217
 MODFLOW STRESS PERIOD      2     CURRENT TIME STEP:     217     ITERATIONS:      10

 -----------------------------------------------------------------------------------

   CUMULATIVE VOLUMES               L**3   RATES FOR THIS TIME STEP           L**3/T
   ------------------                      ------------------------

                                     IN                                         IN
                                     --                                         --
        PRECIPITATION =        1.6515D+07          PRECIPITATION =                  
           STREAMFLOW =                               STREAMFLOW =                  
     GW BOUNDARY FLOW =                         GW BOUNDARY FLOW =                  


                                    OUT                                        OUT
                                    ---                                        ---
   EVAPOTRANSPIRATION =        1.0064D+07     EVAPOTRANSPIRATION =          46985.99
           STREAMFLOW =        5707782.01             STREAMFLOW =          11613.09
     GW BOUNDARY FLOW =         157721.18       GW BOUNDARY FLOW =            724.45

   INFLOWS - OUTFLOWS =         586057.95     INFLOWS - OUTFLOWS =         -59323.52
             --------                                   --------

 TOTAL STORAGE CHANGE =         589163.50         STORAGE CHANGE =         -59320.72
       --------------                             --------------
         LAND SURFACE =         583908.85           LAND SURFACE =         -19597.75
            SOIL ZONE =        1384206.49              SOIL ZONE =         -23326.62
     UNSATURATED ZONE =        -609330.67       UNSATURATED ZONE =         -13814.44
       SATURATED ZONE =        -769621.17         SATURATED ZONE =          -2581.91

 OVERALL BUDGET ERROR =          -3105.55           BUDGET ERROR =             -2.81


  PERCENT DISCREPANCY =             -0.02    PERCENT DISCREPANCY =             -0.00



1
 SUMMARY VOLUMETRIC BUDGET FOR GSFLOW 
 DATE: 05 12 1981              CUMULATIVE TIME STEP:     224
 MODFLOW STRESS PERIOD      2     CURRENT TIME STEP:     224     ITERATIONS:      10

 -----------------------------------------------------------------------------------

   CUMULATIVE VOLUMES               L**3   RATES FOR THIS TIME STEP           L**3/T
   ------------------                      ------------------------

                                     IN                                         IN
                                     --                                         --
        PRECIPITATION =        1.6515D+07          PRECIPITATION =                  
           STREAMFLOW =                               STREAMFLOW =                  
     GW BOUNDARY FLOW =                         GW BOUNDARY FLOW =                  


                                    OUT                                        OUT
                                    ---                                        ---
   EVAPOTRANSPIRATION =        1.0596D+07     EVAPOTRANSPIRATION =         101655.00
           STREAMFLOW =        5788193.54             STREAMFLOW =          12741.55
     GW BOUNDARY FLOW =         162788.48       GW BOUNDARY FLOW =            723.81

   INFLOWS - OUTFLOWS =         -31234.30     INFLOWS - OUTFLOWS =        -115120.36
             --------                                   --------

 TOTAL STORAGE CHANGE =         -28104.66         STORAGE CHANGE =        -115115.77
       --------------                             --------------
         LAND SURFACE =         364139.12           LAND SURFACE =         -39545.55
            SOIL ZONE =        1102704.44              SOIL ZONE =         -60832.97
     UNSATURATED ZONE =        -697950.86       UNSATURATED ZONE =          -9947.00
       SATURATED ZONE =        -796997.35         SATURATED ZONE =          -4790.24

 OVERALL BUDGET ERROR =          -3129.64           BUDGET ERROR =             -4.59


  PERCENT DISCREPANCY =             -0.02    PERCENT DISCREPANCY =             -0.00



1
 SUMMARY VOLUMETRIC BUDGET FOR GSFLOW 
 DATE: 05 19 1981              CUMULATIVE TIME STEP:     231
 MODFLOW STRESS PERIOD      2     CURRENT TIME STEP:     231     ITERATIONS:      12

 -----------------------------------------------------------------------------------

   CUMULATIVE VOLUMES               L**3   RATES FOR THIS TIME STEP           L**3/T
   ------------------                      ------------------------

                                     IN                                         IN
                                     --                                         --
        PRECIPITATION =        1.7837D+07          PRECIPITATION =         169045.43
           STREAMFLOW =                               STREAMFLOW =                  
     GW BOUNDARY FLOW =                         GW BOUNDARY FLOW =                  


                                    OUT                                        OUT
                                    ---                                        ---
   EVAPOTRANSPIRATION =        1.0942D+07     EVAPOTRANSPIRATION =          31098.89
           STREAMFLOW =        5942106.54             STREAMFLOW =          31683.47
     GW BOUNDARY FLOW =         167858.41       GW BOUNDARY FLOW =            725.87

   INFLOWS - OUTFLOWS =         785171.39     INFLOWS - OUTFLOWS =         105537.20
             --------                                   --------

 TOTAL STORAGE CHANGE =         788330.56         STORAGE CHANGE =         105541.46
       --------------                             --------------
         LAND SURFACE =         315733.71           LAND SURFACE =          16905.78
            SOIL ZONE =        2038950.31              SOIL ZONE =          85989.22
     UNSATURATED ZONE =        -733731.84       UNSATURATED ZONE =           6896.24
       SATURATED ZONE =        -832621.62         SATURATED ZONE =          -4249.78

 OVERALL BUDGET ERROR =          -3159.17           BUDGET ERROR =             -4.26


  PERCENT DISCREPANCY =             -0.02    PERCENT DISCREPANCY =             -0.00



1
 SUMMARY VOLUMETRIC BUDGET FOR GSFLOW 
 DATE: 05 26 1981              CUMULATIVE TIME STEP:     238
 MODFLOW STRESS PERIOD      2     CURRENT TIME STEP:     238     ITERATIONS:      11

 -----------------------------------------------------------------------------------

   CUMULATIVE VOLUMES               L**3   RATES FOR THIS TIME STEP           L**3/T
   ------------------                      ------------------------

                                     IN                                         IN
                                     --                                         --
        PRECIPITATION =        1.8252D+07          PRECIPITATION =         284303.67
           STREAMFLOW =                               STREAMFLOW =                  
     GW BOUNDARY FLOW =                         GW BOUNDARY FLOW =                  


                                    OUT                                        OUT
                                    ---                                        ---
   EVAPOTRANSPIRATION =        1.1737D+07     EVAPOTRANSPIRATION =         126247.52
           STREAMFLOW =        6079505.29             STREAMFLOW =          24074.68
     GW BOUNDARY FLOW =         172932.15       GW BOUNDARY FLOW =            724.56

   INFLOWS - OUTFLOWS =         262847.41     INFLOWS - OUTFLOWS =         133256.91
             --------                                   --------

 TOTAL STORAGE CHANGE =         266029.09         STORAGE CHANGE =         133261.51
       --------------                             --------------
         LAND SURFACE =         197572.68           LAND SURFACE =         -13397.86
            SOIL ZONE =        1702823.29              SOIL ZONE =         158514.92
     UNSATURATED ZONE =        -759502.58       UNSATURATED ZONE =          -6154.79
       SATURATED ZONE =        -874864.29         SATURATED ZONE =          -5700.75

 OVERALL BUDGET ERROR =          -3181.69           BUDGET ERROR =             -4.60


  PERCENT DISCREPANCY =             -0.02    PERCENT DISCREPANCY =             -0.00



1
 SUMMARY VOLUMETRIC BUDGET FOR GSFLOW 
 DATE: 06 02 1981              CUMULATIVE TIME STEP:     245
 MODFLOW STRESS PERIOD      2     CURRENT TIME STEP:     245     ITERATIONS:       9

 -----------------------------------------------------------------------------------

   CUMULATIVE VOLUMES               L**3   RATES FOR THIS TIME STEP           L**3/T
   ------------------                      ------------------------

                                     IN                                         IN
                                     --                                         --
        PRECIPITATION =        1.8318D+07          PRECIPITATION =          50869.96
           STREAMFLOW =                               STREAMFLOW =                  
     GW BOUNDARY FLOW =                         GW BOUNDARY FLOW =                  


                                    OUT                                        OUT
                                    ---                                        ---
   EVAPOTRANSPIRATION =        1.2568D+07     EVAPOTRANSPIRATION =          66519.14
           STREAMFLOW =        6165404.54             STREAMFLOW =           9056.14
     GW BOUNDARY FLOW =         177997.84       GW BOUNDARY FLOW =            722.98

   INFLOWS - OUTFLOWS =        -593217.36     INFLOWS - OUTFLOWS =         -25428.30
             --------                                   --------

 TOTAL STORAGE CHANGE =        -589998.06         STORAGE CHANGE =         -25422.40
       --------------                             --------------
         LAND SURFACE =         119474.97           LAND SURFACE =          25659.25
            SOIL ZONE =        1053774.72              SOIL ZONE =         -31020.26
     UNSATURATED ZONE =        -836244.21       UNSATURATED ZONE =         -12014.93
       SATURATED ZONE =        -927003.54         SATURATED ZONE =          -8046.47

 OVERALL BUDGET ERROR =          -3219.29           BUDGET ERROR =             -5.90


  PERCENT DISCREPANCY =             -0.02    PERCENT DISCREPANCY =             -0.01



1
 SUMMARY VOLUMETRIC BUDGET FOR GSFLOW 
 DATE: 06 09 1981              CUMULATIVE TIME STEP:     252
 MODFLOW STRESS PERIOD      2     CURRENT TIME STEP:     252     ITERATIONS:      10

 -----------------------------------------------------------------------------------

   CUMULATIVE VOLUMES               L**3   RATES FOR THIS TIME STEP           L**3/T
   ------------------                      ------------------------

                                     IN                                         IN
                                     --                                         --
        PRECIPITATION =        1.8318D+07          PRECIPITATION =                  
           STREAMFLOW =                               STREAMFLOW =                  
     GW BOUNDARY FLOW =                         GW BOUNDARY FLOW =                  


                                    OUT                                        OUT
                                    ---                                        ---
   EVAPOTRANSPIRATION =        1.3120D+07     EVAPOTRANSPIRATION =          55288.89
           STREAMFLOW =        6219984.78             STREAMFLOW =           7191.32
     GW BOUNDARY FLOW =         183055.63       GW BOUNDARY FLOW =            722.29

   INFLOWS - OUTFLOWS =       -1204915.35     INFLOWS - OUTFLOWS =         -63202.51
             --------                                   --------

 TOTAL STORAGE CHANGE =       -1201658.03         STORAGE CHANGE =         -63197.16
       --------------                             --------------
         LAND SURFACE =          39669.52           LAND SURFACE =          -4382.74
            SOIL ZONE =         663591.01              SOIL ZONE =         -38344.94
     UNSATURATED ZONE =        -918045.74       UNSATURATED ZONE =         -11516.09
       SATURATED ZONE =        -986872.82         SATURATED ZONE =          -8953.39

 OVERALL BUDGET ERROR =          -3257.32           BUDGET ERROR =             -5.34


  PERCENT DISCREPANCY =             -0.02    PERCENT DISCREPANCY =             -0.01



1
 SUMMARY VOLUMETRIC BUDGET FOR GSFLOW 
 DATE: 06 16 1981              CUMULATIVE TIME STEP:     259
 MODFLOW STRESS PERIOD      2     CURRENT TIME STEP:     259     ITERATIONS:       9

 -----------------------------------------------------------------------------------

   CUMULATIVE VOLUMES               L**3   RATES FOR THIS TIME STEP           L**3/T
   ------------------                      ------------------------

                                     IN                                         IN
                                     --                                         --
        PRECIPITATION =        1.8318D+07          PRECIPITATION =                  
           STREAMFLOW =                               STREAMFLOW =                  
     GW BOUNDARY FLOW =                         GW BOUNDARY FLOW =                  


                                    OUT                                        OUT
                                    ---                                        ---
   EVAPOTRANSPIRATION =        1.3328D+07     EVAPOTRANSPIRATION =          47141.45
           STREAMFLOW =        6267522.21             STREAMFLOW =           6639.40
     GW BOUNDARY FLOW =         188110.31       GW BOUNDARY FLOW =            721.99

   INFLOWS - OUTFLOWS =       -1464953.88     INFLOWS - OUTFLOWS =         -54502.84
             --------                                   --------

 TOTAL STORAGE CHANGE =       -1461658.61         STORAGE CHANGE =         -54497.53
       --------------                             --------------
         LAND SURFACE =          25589.68           LAND SURFACE =          -3042.77
            SOIL ZONE =         567092.30              SOIL ZONE =         -29822.49
     UNSATURATED ZONE =       -1005145.92       UNSATURATED ZONE =         -12726.62
       SATURATED ZONE =       -1049194.66         SATURATED ZONE =          -8905.66

 OVERALL BUDGET ERROR =          -3295.27           BUDGET ERROR =             -5.31


  PERCENT DISCREPANCY =             -0.02    PERCENT DISCREPANCY =             -0.01



1
 SUMMARY VOLUMETRIC BUDGET FOR GSFLOW 
 DATE: 06 23 1981              CUMULATIVE TIME STEP:     266
 MODFLOW STRESS PERIOD      2     CURRENT TIME STEP:     266     ITERATIONS:      11

 -----------------------------------------------------------------------------------

   CUMULATIVE VOLUMES               L**3   RATES FOR THIS TIME STEP           L**3/T
   ------------------                      ------------------------

                                     IN                                         IN
                                     --                                         --
        PRECIPITATION =        1.8318D+07          PRECIPITATION =                  
           STREAMFLOW =                               STREAMFLOW =                  
     GW BOUNDARY FLOW =                         GW BOUNDARY FLOW =                  


                                    OUT                                        OUT
                                    ---                                        ---
   EVAPOTRANSPIRATION =        1.3668D+07     EVAPOTRANSPIRATION =          39988.69
           STREAMFLOW =        6311726.54             STREAMFLOW =           6072.66
     GW BOUNDARY FLOW =         193163.16       GW BOUNDARY FLOW =            721.70

   INFLOWS - OUTFLOWS =       -1854283.16     INFLOWS - OUTFLOWS =         -46783.05
             --------                                   --------

 TOTAL STORAGE CHANGE =       -1850948.44         STORAGE CHANGE =         -46777.38
       --------------                             --------------
         LAND SURFACE =           6959.28           LAND SURFACE =          -1578.51
            SOIL ZONE =         349129.04              SOIL ZONE =         -23459.06
     UNSATURATED ZONE =       -1091961.80       UNSATURATED ZONE =         -12101.91
       SATURATED ZONE =       -1115074.96         SATURATED ZONE =          -9637.90

 OVERALL BUDGET ERROR =          -3334.72           BUDGET ERROR =             -5.67


  PERCENT DISCREPANCY =             -0.02    PERCENT DISCREPANCY =             -0.01



1
 SUMMARY VOLUMETRIC BUDGET FOR GSFLOW 
 DATE: 06 30 1981              CUMULATIVE TIME STEP:     273
 MODFLOW STRESS PERIOD      2     CURRENT TIME STEP:     273     ITERATIONS:       9

 -----------------------------------------------------------------------------------

   CUMULATIVE VOLUMES               L**3   RATES FOR THIS TIME STEP           L**3/T
   ------------------                      ------------------------

                                     IN                                         IN
[...]
                                    ---                                        ---
   EVAPOTRANSPIRATION =        2.8436D+08     EVAPOTRANSPIRATION =          48561.86
           STREAMFLOW =        1.8366D+08             STREAMFLOW =           7394.08
     GW BOUNDARY FLOW =        4176920.80       GW BOUNDARY FLOW =            726.14

   INFLOWS - OUTFLOWS =       -7139160.56     INFLOWS - OUTFLOWS =         -56682.08
             --------                                   --------

 TOTAL STORAGE CHANGE =       -7121480.59         STORAGE CHANGE =         -56679.96
       --------------                             --------------
         LAND SURFACE =         214963.45           LAND SURFACE =         -10645.32
            SOIL ZONE =         326599.68              SOIL ZONE =         -24468.21
     UNSATURATED ZONE =        5302768.62       UNSATURATED ZONE =         -29107.24
       SATURATED ZONE =       -1.2966D+07         SATURATED ZONE =           7540.81

 OVERALL BUDGET ERROR =         -17679.98           BUDGET ERROR =             -2.12


  PERCENT DISCREPANCY =             -0.00    PERCENT DISCREPANCY =             -0.00



1
 SUMMARY VOLUMETRIC BUDGET FOR GSFLOW 
 DATE: 07 30 1996              CUMULATIVE TIME STEP:    5782
 MODFLOW STRESS PERIOD      2     CURRENT TIME STEP:    5782     ITERATIONS:      10

 -----------------------------------------------------------------------------------

   CUMULATIVE VOLUMES               L**3   RATES FOR THIS TIME STEP           L**3/T
   ------------------                      ------------------------

                                     IN                                         IN
                                     --                                         --
        PRECIPITATION =        4.6511D+08          PRECIPITATION =                  
           STREAMFLOW =                               STREAMFLOW =                  
     GW BOUNDARY FLOW =                         GW BOUNDARY FLOW =                  


                                    OUT                                        OUT
                                    ---                                        ---
   EVAPOTRANSPIRATION =        2.8467D+08     EVAPOTRANSPIRATION =          32874.37
           STREAMFLOW =        1.8371D+08             STREAMFLOW =           7083.84
     GW BOUNDARY FLOW =        4182001.63       GW BOUNDARY FLOW =            725.70

   INFLOWS - OUTFLOWS =       -7454960.89     INFLOWS - OUTFLOWS =         -40683.91
             --------                                   --------

 TOTAL STORAGE CHANGE =       -7437280.24         STORAGE CHANGE =         -40683.11
       --------------                             --------------
         LAND SURFACE =         152309.39           LAND SURFACE =          -7555.65
            SOIL ZONE =         225288.93              SOIL ZONE =         -11543.78
     UNSATURATED ZONE =        5103528.38       UNSATURATED ZONE =         -28026.93
       SATURATED ZONE =       -1.2918D+07         SATURATED ZONE =           6443.25

 OVERALL BUDGET ERROR =         -17680.65           BUDGET ERROR =             -0.81


  PERCENT DISCREPANCY =             -0.00    PERCENT DISCREPANCY =             -0.00



1
 SUMMARY VOLUMETRIC BUDGET FOR GSFLOW 
 DATE: 08 06 1996              CUMULATIVE TIME STEP:    5789
 MODFLOW STRESS PERIOD      2     CURRENT TIME STEP:    5789     ITERATIONS:      10

 -----------------------------------------------------------------------------------

   CUMULATIVE VOLUMES               L**3   RATES FOR THIS TIME STEP           L**3/T
   ------------------                      ------------------------

                                     IN                                         IN
                                     --                                         --
        PRECIPITATION =        4.6511D+08          PRECIPITATION =                  
           STREAMFLOW =                               STREAMFLOW =                  
     GW BOUNDARY FLOW =                         GW BOUNDARY FLOW =                  


                                    OUT                                        OUT
                                    ---                                        ---
   EVAPOTRANSPIRATION =        2.8485D+08     EVAPOTRANSPIRATION =          24588.67
           STREAMFLOW =        1.8376D+08             STREAMFLOW =           6796.09
     GW BOUNDARY FLOW =        4187080.76       GW BOUNDARY FLOW =            725.49

   INFLOWS - OUTFLOWS =       -7690191.90     INFLOWS - OUTFLOWS =         -32110.25
             --------                                   --------

 TOTAL STORAGE CHANGE =       -7672502.92         STORAGE CHANGE =         -32108.80
       --------------                             --------------
         LAND SURFACE =         111776.46           LAND SURFACE =          -5017.65
            SOIL ZONE =         180306.31              SOIL ZONE =          -5848.25
     UNSATURATED ZONE =        4912393.74       UNSATURATED ZONE =         -26512.71
       SATURATED ZONE =       -1.2877D+07         SATURATED ZONE =           5269.82

 OVERALL BUDGET ERROR =         -17688.98           BUDGET ERROR =             -1.45


  PERCENT DISCREPANCY =             -0.00    PERCENT DISCREPANCY =             -0.00



1
 SUMMARY VOLUMETRIC BUDGET FOR GSFLOW 
 DATE: 08 13 1996              CUMULATIVE TIME STEP:    5796
 MODFLOW STRESS PERIOD      2     CURRENT TIME STEP:    5796     ITERATIONS:      10

 -----------------------------------------------------------------------------------

   CUMULATIVE VOLUMES               L**3   RATES FOR THIS TIME STEP           L**3/T
   ------------------                      ------------------------

                                     IN                                         IN
                                     --                                         --
        PRECIPITATION =        4.6531D+08          PRECIPITATION =          54454.08
           STREAMFLOW =                               STREAMFLOW =                  
     GW BOUNDARY FLOW =                         GW BOUNDARY FLOW =                  


                                    OUT                                        OUT
                                    ---                                        ---
   EVAPOTRANSPIRATION =        2.8507D+08     EVAPOTRANSPIRATION =          37045.99
           STREAMFLOW =        1.8381D+08             STREAMFLOW =           7987.22
     GW BOUNDARY FLOW =        4192158.44       GW BOUNDARY FLOW =            725.39

   INFLOWS - OUTFLOWS =       -7758947.04     INFLOWS - OUTFLOWS =           8695.49
             --------                                   --------

 TOTAL STORAGE CHANGE =       -7741238.34         STORAGE CHANGE =           8697.14
       --------------                             --------------
         LAND SURFACE =         105220.94           LAND SURFACE =          -5194.35
            SOIL ZONE =         265228.36              SOIL ZONE =          34715.43
     UNSATURATED ZONE =        4730339.95       UNSATURATED ZONE =         -25498.14
       SATURATED ZONE =       -1.2842D+07         SATURATED ZONE =           4674.20

 OVERALL BUDGET ERROR =         -17708.70           BUDGET ERROR =             -1.65


  PERCENT DISCREPANCY =             -0.00    PERCENT DISCREPANCY =             -0.00



1
 SUMMARY VOLUMETRIC BUDGET FOR GSFLOW 
 DATE: 08 20 1996              CUMULATIVE TIME STEP:    5803
 MODFLOW STRESS PERIOD      2     CURRENT TIME STEP:    5803     ITERATIONS:      10

 -----------------------------------------------------------------------------------

   CUMULATIVE VOLUMES               L**3   RATES FOR THIS TIME STEP           L**3/T
   ------------------                      ------------------------

                                     IN                                         IN
                                     --                                         --
        PRECIPITATION =        4.6531D+08          PRECIPITATION =                  
           STREAMFLOW =                               STREAMFLOW =                  
     GW BOUNDARY FLOW =                         GW BOUNDARY FLOW =                  


                                    OUT                                        OUT
                                    ---                                        ---
   EVAPOTRANSPIRATION =        2.8529D+08     EVAPOTRANSPIRATION =          19596.50
           STREAMFLOW =        1.8386D+08             STREAMFLOW =           6540.84
     GW BOUNDARY FLOW =        4197234.02       GW BOUNDARY FLOW =            724.86

   INFLOWS - OUTFLOWS =       -8030604.61     INFLOWS - OUTFLOWS =         -26862.21
             --------                                   --------

 TOTAL STORAGE CHANGE =       -8012892.05         STORAGE CHANGE =         -26860.33
       --------------                             --------------
         LAND SURFACE =          44442.31           LAND SURFACE =          -2851.34
            SOIL ZONE =         199780.78              SOIL ZONE =          -3355.15
     UNSATURATED ZONE =        4558176.34       UNSATURATED ZONE =         -24122.50
       SATURATED ZONE =       -1.2815D+07         SATURATED ZONE =           3468.66

 OVERALL BUDGET ERROR =         -17712.57           BUDGET ERROR =             -1.87


  PERCENT DISCREPANCY =             -0.00    PERCENT DISCREPANCY =             -0.01



1
 SUMMARY VOLUMETRIC BUDGET FOR GSFLOW 
 DATE: 08 27 1996              CUMULATIVE TIME STEP:    5810
 MODFLOW STRESS PERIOD      2     CURRENT TIME STEP:    5810     ITERATIONS:       9

 -----------------------------------------------------------------------------------

   CUMULATIVE VOLUMES               L**3   RATES FOR THIS TIME STEP           L**3/T
   ------------------                      ------------------------

                                     IN                                         IN
                                     --                                         --
        PRECIPITATION =        4.6531D+08          PRECIPITATION =                  
           STREAMFLOW =                               STREAMFLOW =                  
     GW BOUNDARY FLOW =                         GW BOUNDARY FLOW =                  


                                    OUT                                        OUT
                                    ---                                        ---
   EVAPOTRANSPIRATION =        2.8545D+08     EVAPOTRANSPIRATION =          17238.52
           STREAMFLOW =        1.8390D+08             STREAMFLOW =           6371.09
     GW BOUNDARY FLOW =        4202306.19       GW BOUNDARY FLOW =            724.41

   INFLOWS - OUTFLOWS =       -8238024.89     INFLOWS - OUTFLOWS =         -24334.01
             --------                                   --------

 TOTAL STORAGE CHANGE =       -8220307.07         STORAGE CHANGE =         -24334.91
       --------------                             --------------
         LAND SURFACE =          21435.24           LAND SURFACE =          -2621.72
            SOIL ZONE =         158869.90              SOIL ZONE =          -1324.72
     UNSATURATED ZONE =        4393853.98       UNSATURATED ZONE =         -22957.54
       SATURATED ZONE =       -1.2794D+07         SATURATED ZONE =           2569.07

 OVERALL BUDGET ERROR =         -17717.82           BUDGET ERROR =              0.90


  PERCENT DISCREPANCY =             -0.00    PERCENT DISCREPANCY =              0.00



1
 SUMMARY VOLUMETRIC BUDGET FOR GSFLOW 
 DATE: 09 03 1996              CUMULATIVE TIME STEP:    5817
 MODFLOW STRESS PERIOD      2     CURRENT TIME STEP:    5817     ITERATIONS:       9

 -----------------------------------------------------------------------------------

   CUMULATIVE VOLUMES               L**3   RATES FOR THIS TIME STEP           L**3/T
   ------------------                      ------------------------

                                     IN                                         IN
                                     --                                         --
        PRECIPITATION =        4.6531D+08          PRECIPITATION =                  
           STREAMFLOW =                               STREAMFLOW =                  
     GW BOUNDARY FLOW =                         GW BOUNDARY FLOW =                  


                                    OUT                                        OUT
                                    ---                                        ---
   EVAPOTRANSPIRATION =        2.8557D+08     EVAPOTRANSPIRATION =          14307.69
           STREAMFLOW =        1.8395D+08             STREAMFLOW =           6253.66
     GW BOUNDARY FLOW =        4207375.13       GW BOUNDARY FLOW =            723.94

   INFLOWS - OUTFLOWS =       -8407698.96     INFLOWS - OUTFLOWS =         -21285.30
             --------                                   --------

 TOTAL STORAGE CHANGE =       -8389983.72         STORAGE CHANGE =         -21285.55
       --------------                             --------------
         LAND SURFACE =           7240.32           LAND SURFACE =          -1278.90
            SOIL ZONE =         145099.80              SOIL ZONE =            132.96
     UNSATURATED ZONE =        4237521.18       UNSATURATED ZONE =         -22145.37
       SATURATED ZONE =       -1.2780D+07         SATURATED ZONE =           2005.76

 OVERALL BUDGET ERROR =         -17715.24           BUDGET ERROR =              0.25


  PERCENT DISCREPANCY =             -0.00    PERCENT DISCREPANCY =              0.00



1
 SUMMARY VOLUMETRIC BUDGET FOR GSFLOW 
 DATE: 09 10 1996              CUMULATIVE TIME STEP:    5824
 MODFLOW STRESS PERIOD      2     CURRENT TIME STEP:    5824     ITERATIONS:       8

 -----------------------------------------------------------------------------------

   CUMULATIVE VOLUMES               L**3   RATES FOR THIS TIME STEP           L**3/T
   ------------------                      ------------------------

                                     IN                                         IN
                                     --                                         --
        PRECIPITATION =        4.6531D+08          PRECIPITATION =                  
           STREAMFLOW =                               STREAMFLOW =                  
     GW BOUNDARY FLOW =                         GW BOUNDARY FLOW =                  


                                    OUT                                        OUT
                                    ---                                        ---
   EVAPOTRANSPIRATION =        2.8566D+08     EVAPOTRANSPIRATION =          14787.25
           STREAMFLOW =        1.8399D+08             STREAMFLOW =           6144.27
     GW BOUNDARY FLOW =        4212440.96       GW BOUNDARY FLOW =            723.50

   INFLOWS - OUTFLOWS =       -8546291.59     INFLOWS - OUTFLOWS =         -21655.03
             --------                                   --------

 TOTAL STORAGE CHANGE =       -8528614.64         STORAGE CHANGE =         -21661.02
       --------------                             --------------
         LAND SURFACE =           2510.71           LAND SURFACE =           -704.62
            SOIL ZONE =         151270.62              SOIL ZONE =          -1044.57
     UNSATURATED ZONE =        4085642.35       UNSATURATED ZONE =         -21429.47
       SATURATED ZONE =       -1.2768D+07         SATURATED ZONE =           1517.65

 OVERALL BUDGET ERROR =         -17676.94           BUDGET ERROR =              5.98


  PERCENT DISCREPANCY =             -0.00    PERCENT DISCREPANCY =              0.03



1
 SUMMARY VOLUMETRIC BUDGET FOR GSFLOW 
 DATE: 09 17 1996              CUMULATIVE TIME STEP:    5831
 MODFLOW STRESS PERIOD      2     CURRENT TIME STEP:    5831     ITERATIONS:       8

 -----------------------------------------------------------------------------------

   CUMULATIVE VOLUMES               L**3   RATES FOR THIS TIME STEP           L**3/T
   ------------------                      ------------------------

                                     IN                                         IN
                                     --                                         --
        PRECIPITATION =        4.6637D+08          PRECIPITATION =                  
           STREAMFLOW =                               STREAMFLOW =                  
     GW BOUNDARY FLOW =                         GW BOUNDARY FLOW =                  


                                    OUT                                        OUT
                                    ---                                        ---
   EVAPOTRANSPIRATION =        2.8583D+08     EVAPOTRANSPIRATION =          52774.70
           STREAMFLOW =        1.8406D+08             STREAMFLOW =          10276.00
     GW BOUNDARY FLOW =        4217506.40       GW BOUNDARY FLOW =            724.09

   INFLOWS - OUTFLOWS =       -7739614.32     INFLOWS - OUTFLOWS =         -63774.80
             --------                                   --------

 TOTAL STORAGE CHANGE =       -7721972.24         STORAGE CHANGE =         -63779.24
       --------------                             --------------
         LAND SURFACE =            882.14           LAND SURFACE =         -33826.70
            SOIL ZONE =        1096104.15              SOIL ZONE =         -10259.21
     UNSATURATED ZONE =        3940336.75       UNSATURATED ZONE =         -20360.99
       SATURATED ZONE =       -1.2759D+07         SATURATED ZONE =            667.66

 OVERALL BUDGET ERROR =         -17642.08           BUDGET ERROR =              4.44


  PERCENT DISCREPANCY =             -0.00    PERCENT DISCREPANCY =              0.01



1
 SUMMARY VOLUMETRIC BUDGET FOR GSFLOW 
 DATE: 09 24 1996              CUMULATIVE TIME STEP:    5838
 MODFLOW STRESS PERIOD      2     CURRENT TIME STEP:    5838     ITERATIONS:      13

 -----------------------------------------------------------------------------------

   CUMULATIVE VOLUMES               L**3   RATES FOR THIS TIME STEP           L**3/T
   ------------------                      ------------------------

                                     IN                                         IN
                                     --                                         --
        PRECIPITATION =        4.6637D+08          PRECIPITATION =                  
           STREAMFLOW =                               STREAMFLOW =                  
     GW BOUNDARY FLOW =                         GW BOUNDARY FLOW =                  


                                    OUT                                        OUT
                                    ---                                        ---
   EVAPOTRANSPIRATION =        2.8632D+08     EVAPOTRANSPIRATION =          56278.41
           STREAMFLOW =        1.8411D+08             STREAMFLOW =           6723.80
     GW BOUNDARY FLOW =        4222570.26       GW BOUNDARY FLOW =            723.02

   INFLOWS - OUTFLOWS =       -8288528.45     INFLOWS - OUTFLOWS =         -63725.23
             --------                                   --------

 TOTAL STORAGE CHANGE =       -8270894.21         STORAGE CHANGE =         -63719.61
       --------------                             --------------
         LAND SURFACE =                             LAND SURFACE =                  
            SOIL ZONE =         685107.73              SOIL ZONE =         -44235.39
     UNSATURATED ZONE =        3802534.53       UNSATURATED ZONE =         -19199.03
       SATURATED ZONE =       -1.2759D+07         SATURATED ZONE =           -285.19

 OVERALL BUDGET ERROR =         -17634.24           BUDGET ERROR =             -5.62


  PERCENT DISCREPANCY =             -0.00    PERCENT DISCREPANCY =             -0.01



