1
 SUMMARY VOLUMETRIC BUDGET FOR GSFLOW 
 DATE: 10 07 1980              CUMULATIVE TIME STEP:       7
 MODFLOW STRESS PERIOD      2     CURRENT TIME STEP:       7     ITERATIONS:       4

 -----------------------------------------------------------------------------------

   CUMULATIVE VOLUMES               L**3   RATES FOR THIS TIME STEP           L**3/T
   ------------------                      ------------------------

                                     IN                                         IN
                                     --                                         --
        PRECIPITATION =                            PRECIPITATION =                  
           STREAMFLOW =                               STREAMFLOW =                  
     GW BOUNDARY FLOW =                         GW BOUNDARY FLOW =                  


                                    OUT                                        OUT
                                    ---                                        ---
   EVAPOTRANSPIRATION =          65406.41     EVAPOTRANSPIRATION =           9159.83
           STREAMFLOW =          43081.79             STREAMFLOW =           6083.36
     GW BOUNDARY FLOW =           5067.91       GW BOUNDARY FLOW =            723.89

   INFLOWS - OUTFLOWS =        -113556.10     INFLOWS - OUTFLOWS =         -15967.09
             --------                                   --------

 TOTAL STORAGE CHANGE =        -113321.97         STORAGE CHANGE =         -15932.84
       --------------                             --------------
         LAND SURFACE =                             LAND SURFACE =                  
            SOIL ZONE =          45038.79              SOIL ZONE =           6526.75
     UNSATURATED ZONE =        -144965.30       UNSATURATED ZONE =         -20382.35
       SATURATED ZONE =         -13395.46         SATURATED ZONE =          -2077.23

 OVERALL BUDGET ERROR =           -234.13           BUDGET ERROR =            -34.25


  PERCENT DISCREPANCY =             -0.21    PERCENT DISCREPANCY =             -0.21



1
 SUMMARY VOLUMETRIC BUDGET FOR GSFLOW 
 DATE: 10 14 1980              CUMULATIVE TIME STEP:      14
 MODFLOW STRESS PERIOD      2     CURRENT TIME STEP:      14     ITERATIONS:       4

 -----------------------------------------------------------------------------------

   CUMULATIVE VOLUMES               L**3   RATES FOR THIS TIME STEP           L**3/T
   ------------------                      ------------------------

                                     IN                                         IN
                                     --                                         --
        PRECIPITATION =         650779.83          PRECIPITATION =         164754.40
           STREAMFLOW =                               STREAMFLOW =                  
     GW BOUNDARY FLOW =                         GW BOUNDARY FLOW =                  


                                    OUT                                        OUT
                                    ---                                        ---
   EVAPOTRANSPIRATION =         160181.51     EVAPOTRANSPIRATION =          11485.13
           STREAMFLOW =          94488.96             STREAMFLOW =           7705.41
     GW BOUNDARY FLOW =          10135.83       GW BOUNDARY FLOW =            724.16

   INFLOWS - OUTFLOWS =         385973.53     INFLOWS - OUTFLOWS =         144839.69
             --------                                   --------

 TOTAL STORAGE CHANGE =         386441.73         STORAGE CHANGE =         144874.89
       --------------                             --------------
         LAND SURFACE =         183750.31           LAND SURFACE =         130549.56
            SOIL ZONE =         516100.25              SOIL ZONE =          36427.48
     UNSATURATED ZONE =        -284675.81       UNSATURATED ZONE =         -19601.72
       SATURATED ZONE =         -28733.02         SATURATED ZONE =          -2500.44

 OVERALL BUDGET ERROR =           -468.20           BUDGET ERROR =            -35.20


  PERCENT DISCREPANCY =             -0.07    PERCENT DISCREPANCY =             -0.02



1
 SUMMARY VOLUMETRIC BUDGET FOR GSFLOW 
 DATE: 10 21 1980              CUMULATIVE TIME STEP:      21
 MODFLOW STRESS PERIOD      2     CURRENT TIME STEP:      21     ITERATIONS:       5

 -----------------------------------------------------------------------------------

   CUMULATIVE VOLUMES               L**3   RATES FOR THIS TIME STEP           L**3/T
   ------------------                      ------------------------

                                     IN                                         IN
                                     --                                         --
        PRECIPITATION =         733157.03          PRECIPITATION =                  
           STREAMFLOW =                               STREAMFLOW =                  
     GW BOUNDARY FLOW =                         GW BOUNDARY FLOW =                  


                                    OUT                                        OUT
                                    ---                                        ---
   EVAPOTRANSPIRATION =         391014.35     EVAPOTRANSPIRATION =          34555.94
           STREAMFLOW =         145903.53             STREAMFLOW =           6948.41
     GW BOUNDARY FLOW =          15204.01       GW BOUNDARY FLOW =            723.92

   INFLOWS - OUTFLOWS =         181035.14     INFLOWS - OUTFLOWS =         -42228.27
             --------                                   --------

 TOTAL STORAGE CHANGE =         181723.54         STORAGE CHANGE =         -42198.04
       --------------                             --------------
         LAND SURFACE =                             LAND SURFACE =                  
            SOIL ZONE =         648882.50              SOIL ZONE =         -20235.03
     UNSATURATED ZONE =        -418560.00       UNSATURATED ZONE =         -18774.38
       SATURATED ZONE =         -48598.95         SATURATED ZONE =          -3188.63

 OVERALL BUDGET ERROR =           -688.40           BUDGET ERROR =            -30.23


  PERCENT DISCREPANCY =             -0.09    PERCENT DISCREPANCY =             -0.07



1
 SUMMARY VOLUMETRIC BUDGET FOR GSFLOW 
 DATE: 10 28 1980              CUMULATIVE TIME STEP:      28
 MODFLOW STRESS PERIOD      2     CURRENT TIME STEP:      28     ITERATIONS:       5

 -----------------------------------------------------------------------------------

   CUMULATIVE VOLUMES               L**3   RATES FOR THIS TIME STEP           L**3/T
   ------------------                      ------------------------

                                     IN                                         IN
                                     --                                         --
        PRECIPITATION =        1070903.53          PRECIPITATION =                  
           STREAMFLOW =                               STREAMFLOW =                  
     GW BOUNDARY FLOW =                         GW BOUNDARY FLOW =                  


                                    OUT                                        OUT
                                    ---                                        ---
   EVAPOTRANSPIRATION =         577162.74     EVAPOTRANSPIRATION =          24710.42
           STREAMFLOW =         200730.41             STREAMFLOW =           8027.58
     GW BOUNDARY FLOW =          20271.64       GW BOUNDARY FLOW =            724.02

   INFLOWS - OUTFLOWS =         272738.74     INFLOWS - OUTFLOWS =         -33462.02
             --------                                   --------

 TOTAL STORAGE CHANGE =         273634.26         STORAGE CHANGE =         -33432.20
       --------------                             --------------
         LAND SURFACE =          20571.53           LAND SURFACE =         -29890.85
            SOIL ZONE =         872094.76              SOIL ZONE =          18046.92
     UNSATURATED ZONE =        -546604.22       UNSATURATED ZONE =         -17920.17
       SATURATED ZONE =         -72427.81         SATURATED ZONE =          -3668.09

 OVERALL BUDGET ERROR =           -895.53           BUDGET ERROR =            -29.82


  PERCENT DISCREPANCY =             -0.08    PERCENT DISCREPANCY =             -0.09



1
 SUMMARY VOLUMETRIC BUDGET FOR GSFLOW 
 DATE: 11 04 1980              CUMULATIVE TIME STEP:      35
 MODFLOW STRESS PERIOD      2     CURRENT TIME STEP:      35     ITERATIONS:       6

 -----------------------------------------------------------------------------------

   CUMULATIVE VOLUMES               L**3   RATES FOR THIS TIME STEP           L**3/T
   ------------------                      ------------------------

                                     IN                                         IN
                                     --                                         --
        PRECIPITATION =        1070903.53          PRECIPITATION =                  
           STREAMFLOW =                               STREAMFLOW =                  
     GW BOUNDARY FLOW =                         GW BOUNDARY FLOW =                  


                                    OUT                                        OUT
                                    ---                                        ---
   EVAPOTRANSPIRATION =         908092.30     EVAPOTRANSPIRATION =          46968.19
           STREAMFLOW =         253777.17             STREAMFLOW =           7120.37
     GW BOUNDARY FLOW =          25338.99       GW BOUNDARY FLOW =            723.82

   INFLOWS - OUTFLOWS =        -116304.94     INFLOWS - OUTFLOWS =         -54812.38
             --------                                   --------

 TOTAL STORAGE CHANGE =        -115209.56         STORAGE CHANGE =         -54786.00
       --------------                             --------------
         LAND SURFACE =                             LAND SURFACE =                  
            SOIL ZONE =         655109.54              SOIL ZONE =         -33165.98
     UNSATURATED ZONE =        -669481.21       UNSATURATED ZONE =         -17300.76
       SATURATED ZONE =        -100837.89         SATURATED ZONE =          -4319.26

 OVERALL BUDGET ERROR =          -1095.38           BUDGET ERROR =            -26.38


  PERCENT DISCREPANCY =             -0.09    PERCENT DISCREPANCY =             -0.05



1
 SUMMARY VOLUMETRIC BUDGET FOR GSFLOW 
 DATE: 11 11 1980              CUMULATIVE TIME STEP:      42
 MODFLOW STRESS PERIOD      2     CURRENT TIME STEP:      42     ITERATIONS:       5

 -----------------------------------------------------------------------------------

   CUMULATIVE VOLUMES               L**3   RATES FOR THIS TIME STEP           L**3/T
   ------------------                      ------------------------

                                     IN                                         IN
                                     --                                         --
        PRECIPITATION =        1573762.54          PRECIPITATION =         255182.19
           STREAMFLOW =                               STREAMFLOW =                  
     GW BOUNDARY FLOW =                         GW BOUNDARY FLOW =                  


                                    OUT                                        OUT
                                    ---                                        ---
   EVAPOTRANSPIRATION =        1115801.65     EVAPOTRANSPIRATION =          18595.67
           STREAMFLOW =         311114.42             STREAMFLOW =          10970.70
     GW BOUNDARY FLOW =          30406.13       GW BOUNDARY FLOW =            724.11

   INFLOWS - OUTFLOWS =         116440.35     INFLOWS - OUTFLOWS =         224891.71
             --------                                   --------

 TOTAL STORAGE CHANGE =         117737.27         STORAGE CHANGE =         224920.16
       --------------                             --------------
         LAND SURFACE =          76960.22           LAND SURFACE =          76747.38
            SOIL ZONE =         959915.47              SOIL ZONE =         168722.66
     UNSATURATED ZONE =        -787490.03       UNSATURATED ZONE =         -16457.32
       SATURATED ZONE =        -131648.39         SATURATED ZONE =          -4092.57

 OVERALL BUDGET ERROR =          -1296.92           BUDGET ERROR =            -28.45


  PERCENT DISCREPANCY =             -0.08    PERCENT DISCREPANCY =             -0.01



1
 SUMMARY VOLUMETRIC BUDGET FOR GSFLOW 
 DATE: 11 18 1980              CUMULATIVE TIME STEP:      49
 MODFLOW STRESS PERIOD      2     CURRENT TIME STEP:      49     ITERATIONS:       5

 -----------------------------------------------------------------------------------

   CUMULATIVE VOLUMES               L**3   RATES FOR THIS TIME STEP           L**3/T
   ------------------                      ------------------------

                                     IN                                         IN
                                     --                                         --
        PRECIPITATION =        1573762.54          PRECIPITATION =                  
           STREAMFLOW =                               STREAMFLOW =                  
     GW BOUNDARY FLOW =                         GW BOUNDARY FLOW =                  


                                    OUT                                        OUT
                                    ---                                        ---
   EVAPOTRANSPIRATION =        1206360.55     EVAPOTRANSPIRATION =          16391.36
           STREAMFLOW =         374775.41             STREAMFLOW =           9278.61
     GW BOUNDARY FLOW =          35474.80       GW BOUNDARY FLOW =            724.11

   INFLOWS - OUTFLOWS =         -42848.22     INFLOWS - OUTFLOWS =         -26394.08
             --------                                   --------

 TOTAL STORAGE CHANGE =         -41354.47         STORAGE CHANGE =         -26366.29
       --------------                             --------------
         LAND SURFACE =           8139.47           LAND SURFACE =          -4965.50
            SOIL ZONE =        1016617.17              SOIL ZONE =           -461.75
     UNSATURATED ZONE =        -900831.15       UNSATURATED ZONE =         -15951.73
       SATURATED ZONE =        -165279.96         SATURATED ZONE =          -4987.31

 OVERALL BUDGET ERROR =          -1493.75           BUDGET ERROR =            -27.79


  PERCENT DISCREPANCY =             -0.09    PERCENT DISCREPANCY =             -0.11



1
 SUMMARY VOLUMETRIC BUDGET FOR GSFLOW 
 DATE: 11 25 1980              CUMULATIVE TIME STEP:      56
 MODFLOW STRESS PERIOD      2     CURRENT TIME STEP:      56     ITERATIONS:       7

 -----------------------------------------------------------------------------------

   CUMULATIVE VOLUMES               L**3   RATES FOR THIS TIME STEP           L**3/T
   ------------------                      ------------------------

                                     IN                                         IN
                                     --                                         --
        PRECIPITATION =        1648816.13          PRECIPITATION =                  
           STREAMFLOW =                               STREAMFLOW =                  
     GW BOUNDARY FLOW =                         GW BOUNDARY FLOW =                  


                                    OUT                                        OUT
                                    ---                                        ---
   EVAPOTRANSPIRATION =        1288530.62     EVAPOTRANSPIRATION =           9281.23
           STREAMFLOW =         439887.78             STREAMFLOW =           9397.07
     GW BOUNDARY FLOW =          40543.59       GW BOUNDARY FLOW =            724.12

   INFLOWS - OUTFLOWS =        -120145.87     INFLOWS - OUTFLOWS =         -19402.41
             --------                                   --------

 TOTAL STORAGE CHANGE =        -118481.06         STORAGE CHANGE =         -19381.09
       --------------                             --------------
         LAND SURFACE =          54136.41           LAND SURFACE =          -9258.02
            SOIL ZONE =        1040008.04              SOIL ZONE =          10778.45
     UNSATURATED ZONE =       -1010001.89       UNSATURATED ZONE =         -15326.22
       SATURATED ZONE =        -202623.62         SATURATED ZONE =          -5575.30

 OVERALL BUDGET ERROR =          -1664.81           BUDGET ERROR =            -21.33


  PERCENT DISCREPANCY =             -0.09    PERCENT DISCREPANCY =             -0.11



1
 SUMMARY VOLUMETRIC BUDGET FOR GSFLOW 
 DATE: 12 02 1980              CUMULATIVE TIME STEP:      63
 MODFLOW STRESS PERIOD      2     CURRENT TIME STEP:      63     ITERATIONS:       5

 -----------------------------------------------------------------------------------

   CUMULATIVE VOLUMES               L**3   RATES FOR THIS TIME STEP           L**3/T
   ------------------                      ------------------------

                                     IN                                         IN
                                     --                                         --
        PRECIPITATION =        2076621.55          PRECIPITATION =                  
           STREAMFLOW =                               STREAMFLOW =                  
     GW BOUNDARY FLOW =                         GW BOUNDARY FLOW =                  


                                    OUT                                        OUT
                                    ---                                        ---
   EVAPOTRANSPIRATION =        1477530.59     EVAPOTRANSPIRATION =          32853.27
           STREAMFLOW =         517053.47             STREAMFLOW =          13643.32
     GW BOUNDARY FLOW =          45613.70       GW BOUNDARY FLOW =            724.63

   INFLOWS - OUTFLOWS =          36423.80     INFLOWS - OUTFLOWS =         -47221.22
             --------                                   --------

 TOTAL STORAGE CHANGE =          38252.56         STORAGE CHANGE =         -47194.58
       --------------                             --------------
         LAND SURFACE =         157031.21           LAND SURFACE =         -76789.76
            SOIL ZONE =        1234066.01              SOIL ZONE =          47637.84
     UNSATURATED ZONE =       -1111910.27       UNSATURATED ZONE =         -13145.50
       SATURATED ZONE =        -240934.38         SATURATED ZONE =          -4897.15

 OVERALL BUDGET ERROR =          -1828.77           BUDGET ERROR =            -26.64


  PERCENT DISCREPANCY =             -0.09    PERCENT DISCREPANCY =             -0.06



1
 SUMMARY VOLUMETRIC BUDGET FOR GSFLOW 
 DATE: 12 09 1980              CUMULATIVE TIME STEP:      70
 MODFLOW STRESS PERIOD      2     CURRENT TIME STEP:      70     ITERATIONS:       5

 -----------------------------------------------------------------------------------

   CUMULATIVE VOLUMES               L**3   RATES FOR THIS TIME STEP           L**3/T
   ------------------                      ------------------------

                                     IN                                         IN
                                     --                                         --
        PRECIPITATION =        4284363.63          PRECIPITATION =                  
           STREAMFLOW =                               STREAMFLOW =                  
     GW BOUNDARY FLOW =                         GW BOUNDARY FLOW =                  


                                    OUT                                        OUT
                                    ---                                        ---
   EVAPOTRANSPIRATION =        1503169.37     EVAPOTRANSPIRATION =           3258.35
           STREAMFLOW =         606412.81             STREAMFLOW =          13150.59
     GW BOUNDARY FLOW =          50686.77       GW BOUNDARY FLOW =            724.82

   INFLOWS - OUTFLOWS =        2124094.68     INFLOWS - OUTFLOWS =         -17133.76
             --------                                   --------

 TOTAL STORAGE CHANGE =        2126102.66         STORAGE CHANGE =         -17107.36
       --------------                             --------------
         LAND SURFACE =        2337504.39           LAND SURFACE =          -3258.35
            SOIL ZONE =        1279964.97              SOIL ZONE =           6400.21
     UNSATURATED ZONE =       -1210034.64       UNSATURATED ZONE =         -14158.28
       SATURATED ZONE =        -281332.07         SATURATED ZONE =          -6090.94

 OVERALL BUDGET ERROR =          -2007.98           BUDGET ERROR =            -26.40


  PERCENT DISCREPANCY =             -0.05    PERCENT DISCREPANCY =             -0.15



1
 SUMMARY VOLUMETRIC BUDGET FOR GSFLOW 
 DATE: 12 16 1980              CUMULATIVE TIME STEP:      77
 MODFLOW STRESS PERIOD      2     CURRENT TIME STEP:      77     ITERATIONS:       5

 -----------------------------------------------------------------------------------

   CUMULATIVE VOLUMES               L**3   RATES FOR THIS TIME STEP           L**3/T
   ------------------                      ------------------------

                                     IN                                         IN
                                     --                                         --
        PRECIPITATION =        4284363.63          PRECIPITATION =                  
           STREAMFLOW =                               STREAMFLOW =                  
     GW BOUNDARY FLOW =                         GW BOUNDARY FLOW =                  


                                    OUT                                        OUT
                                    ---                                        ---
   EVAPOTRANSPIRATION =        1647170.75     EVAPOTRANSPIRATION =          33864.48
           STREAMFLOW =         716113.94             STREAMFLOW =          22886.82
     GW BOUNDARY FLOW =          55762.44       GW BOUNDARY FLOW =            725.66

   INFLOWS - OUTFLOWS =        1865316.49     INFLOWS - OUTFLOWS =         -57476.97
             --------                                   --------

 TOTAL STORAGE CHANGE =        1867511.36         STORAGE CHANGE =         -57449.90
       --------------                             --------------
         LAND SURFACE =        2017009.26           LAND SURFACE =        -133032.45
            SOIL ZONE =        1474310.70              SOIL ZONE =          89786.64
     UNSATURATED ZONE =       -1300506.78       UNSATURATED ZONE =          -9448.15
       SATURATED ZONE =        -323301.82         SATURATED ZONE =          -4755.94

 OVERALL BUDGET ERROR =          -2194.87           BUDGET ERROR =            -27.06


  PERCENT DISCREPANCY =             -0.05    PERCENT DISCREPANCY =             -0.05



1
 SUMMARY VOLUMETRIC BUDGET FOR GSFLOW 
 DATE: 12 23 1980              CUMULATIVE TIME STEP:      84
 MODFLOW STRESS PERIOD      2     CURRENT TIME STEP:      84     ITERATIONS:       6

 -----------------------------------------------------------------------------------

   CUMULATIVE VOLUMES               L**3   RATES FOR THIS TIME STEP           L**3/T
   ------------------                      ------------------------

                                     IN                                         IN
                                     --                                         --
        PRECIPITATION =        4516757.54          PRECIPITATION =                  
           STREAMFLOW =                               STREAMFLOW =                  
     GW BOUNDARY FLOW =                         GW BOUNDARY FLOW =                  


                                    OUT                                        OUT
                                    ---                                        ---
   EVAPOTRANSPIRATION =        1839331.36     EVAPOTRANSPIRATION =          33245.56
           STREAMFLOW =         936548.81             STREAMFLOW =          30182.26
     GW BOUNDARY FLOW =          60853.52       GW BOUNDARY FLOW =            728.01

   INFLOWS - OUTFLOWS =        1680023.85     INFLOWS - OUTFLOWS =         -64155.82
             --------                                   --------

 TOTAL STORAGE CHANGE =        1682367.02         STORAGE CHANGE =         -64138.26
       --------------                             --------------
         LAND SURFACE =        1391476.44           LAND SURFACE =         -50626.27
            SOIL ZONE =        1986395.94              SOIL ZONE =          -3034.42
     UNSATURATED ZONE =       -1343278.68       UNSATURATED ZONE =          -5922.81
       SATURATED ZONE =        -352226.69         SATURATED ZONE =          -4554.76

 OVERALL BUDGET ERROR =          -2343.17           BUDGET ERROR =            -17.56


  PERCENT DISCREPANCY =             -0.05    PERCENT DISCREPANCY =             -0.03



1
 SUMMARY VOLUMETRIC BUDGET FOR GSFLOW 
 DATE: 12 30 1980              CUMULATIVE TIME STEP:      91
 MODFLOW STRESS PERIOD      2     CURRENT TIME STEP:      91     ITERATIONS:       7

 -----------------------------------------------------------------------------------

   CUMULATIVE VOLUMES               L**3   RATES FOR THIS TIME STEP           L**3/T
   ------------------                      ------------------------

                                     IN                                         IN
                                     --                                         --
        PRECIPITATION =        4516757.54          PRECIPITATION =                  
           STREAMFLOW =                               STREAMFLOW =                  
     GW BOUNDARY FLOW =                         GW BOUNDARY FLOW =                  


                                    OUT                                        OUT
                                    ---                                        ---
   EVAPOTRANSPIRATION =        2152238.12     EVAPOTRANSPIRATION =          41017.16
           STREAMFLOW =        1186740.12             STREAMFLOW =          28387.66
     GW BOUNDARY FLOW =          65954.56       GW BOUNDARY FLOW =            728.71

   INFLOWS - OUTFLOWS =        1111824.74     INFLOWS - OUTFLOWS =         -70133.54
             --------                                   --------

 TOTAL STORAGE CHANGE =        1114268.16         STORAGE CHANGE =         -70121.76
       --------------                             --------------
         LAND SURFACE =         579625.22           LAND SURFACE =         -42433.18
            SOIL ZONE =        2259325.52              SOIL ZONE =         -20898.56
     UNSATURATED ZONE =       -1347814.42       UNSATURATED ZONE =          -2703.83
       SATURATED ZONE =        -376868.16         SATURATED ZONE =          -4086.19

 OVERALL BUDGET ERROR =          -2443.43           BUDGET ERROR =            -11.78


  PERCENT DISCREPANCY =             -0.05    PERCENT DISCREPANCY =             -0.02



1
 SUMMARY VOLUMETRIC BUDGET FOR GSFLOW 
 DATE: 01 06 1981              CUMULATIVE TIME STEP:      98
 MODFLOW STRESS PERIOD      2     CURRENT TIME STEP:      98     ITERATIONS:       6

 -----------------------------------------------------------------------------------

   CUMULATIVE VOLUMES               L**3   RATES FOR THIS TIME STEP           L**3/T
   ------------------                      ------------------------

                                     IN                                         IN
                                     --                                         --
        PRECIPITATION =        5004445.43          PRECIPITATION =                  
           STREAMFLOW =                               STREAMFLOW =                  
     GW BOUNDARY FLOW =                         GW BOUNDARY FLOW =                  


                                    OUT                                        OUT
                                    ---                                        ---
   EVAPOTRANSPIRATION =        2351649.34     EVAPOTRANSPIRATION =          18968.00
           STREAMFLOW =        1338910.45             STREAMFLOW =          20538.70
     GW BOUNDARY FLOW =          71048.03       GW BOUNDARY FLOW =            727.04

   INFLOWS - OUTFLOWS =        1242837.61     INFLOWS - OUTFLOWS =         -40233.74
             --------                                   --------

 TOTAL STORAGE CHANGE =        1245370.87         STORAGE CHANGE =         -40220.38
       --------------                             --------------
         LAND SURFACE =         840075.41           LAND SURFACE =         -25549.73
            SOIL ZONE =        2229428.94              SOIL ZONE =           2089.75
     UNSATURATED ZONE =       -1409937.77       UNSATURATED ZONE =         -10796.40
       SATURATED ZONE =        -414195.70         SATURATED ZONE =          -5964.00

 OVERALL BUDGET ERROR =          -2533.25           BUDGET ERROR =            -13.36


  PERCENT DISCREPANCY =             -0.05    PERCENT DISCREPANCY =             -0.03



1
 SUMMARY VOLUMETRIC BUDGET FOR GSFLOW 
 DATE: 01 13 1981              CUMULATIVE TIME STEP:     105
 MODFLOW STRESS PERIOD      2     CURRENT TIME STEP:     105     ITERATIONS:       5

 -----------------------------------------------------------------------------------

   CUMULATIVE VOLUMES               L**3   RATES FOR THIS TIME STEP           L**3/T
   ------------------                      ------------------------

                                     IN                                         IN
                                     --                                         --
        PRECIPITATION =        5004445.43          PRECIPITATION =                  
           STREAMFLOW =                               STREAMFLOW =                  
     GW BOUNDARY FLOW =                         GW BOUNDARY FLOW =                  


                                    OUT                                        OUT
                                    ---                                        ---
   EVAPOTRANSPIRATION =        2540011.82     EVAPOTRANSPIRATION =          38974.39
           STREAMFLOW =        1486149.78             STREAMFLOW =          20619.25
     GW BOUNDARY FLOW =          76135.40       GW BOUNDARY FLOW =            726.60

   INFLOWS - OUTFLOWS =         902148.43     INFLOWS - OUTFLOWS =         -60320.23
             --------                                   --------

 TOTAL STORAGE CHANGE =         904798.89         STORAGE CHANGE =         -60300.52
       --------------                             --------------
         LAND SURFACE =         624161.65           LAND SURFACE =         -38673.92
            SOIL ZONE =        2214044.83              SOIL ZONE =          -6522.69
     UNSATURATED ZONE =       -1475354.00       UNSATURATED ZONE =          -8635.44
       SATURATED ZONE =        -458053.59         SATURATED ZONE =          -6468.47

 OVERALL BUDGET ERROR =          -2650.45           BUDGET ERROR =            -19.72


  PERCENT DISCREPANCY =             -0.05    PERCENT DISCREPANCY =             -0.03



1
 SUMMARY VOLUMETRIC BUDGET FOR GSFLOW 
 DATE: 01 20 1981              CUMULATIVE TIME STEP:     112
 MODFLOW STRESS PERIOD      2     CURRENT TIME STEP:     112     ITERATIONS:       6

 -----------------------------------------------------------------------------------

   CUMULATIVE VOLUMES               L**3   RATES FOR THIS TIME STEP           L**3/T
   ------------------                      ------------------------

                                     IN                                         IN
                                     --                                         --
        PRECIPITATION =        5170466.84          PRECIPITATION =          41505.35
           STREAMFLOW =                               STREAMFLOW =                  
     GW BOUNDARY FLOW =                         GW BOUNDARY FLOW =                  


                                    OUT                                        OUT
                                    ---                                        ---
   EVAPOTRANSPIRATION =        2796186.57     EVAPOTRANSPIRATION =          30596.87
           STREAMFLOW =        1631147.01             STREAMFLOW =          20267.40
     GW BOUNDARY FLOW =          81220.81       GW BOUNDARY FLOW =            726.40

   INFLOWS - OUTFLOWS =         661912.46     INFLOWS - OUTFLOWS =         -10085.33
             --------                                   --------

 TOTAL STORAGE CHANGE =         664662.60         STORAGE CHANGE =         -10071.85
       --------------                             --------------
         LAND SURFACE =         464145.89           LAND SURFACE =           8501.89
            SOIL ZONE =        2209717.32              SOIL ZONE =         -10397.95
     UNSATURATED ZONE =       -1504939.37       UNSATURATED ZONE =          -1379.99
       SATURATED ZONE =        -504261.24         SATURATED ZONE =          -6795.79

 OVERALL BUDGET ERROR =          -2750.15           BUDGET ERROR =            -13.48


  PERCENT DISCREPANCY =             -0.05    PERCENT DISCREPANCY =             -0.03



1
 SUMMARY VOLUMETRIC BUDGET FOR GSFLOW 
 DATE: 01 27 1981              CUMULATIVE TIME STEP:     119
 MODFLOW STRESS PERIOD      2     CURRENT TIME STEP:     119     ITERATIONS:       5

 -----------------------------------------------------------------------------------

   CUMULATIVE VOLUMES               L**3   RATES FOR THIS TIME STEP           L**3/T
   ------------------                      ------------------------

                                     IN                                         IN
                                     --                                         --
        PRECIPITATION =        8646540.08          PRECIPITATION =        2936503.63
           STREAMFLOW =                               STREAMFLOW =                  
     GW BOUNDARY FLOW =                         GW BOUNDARY FLOW =                  


                                    OUT                                        OUT
                                    ---                                        ---
   EVAPOTRANSPIRATION =        3019241.06     EVAPOTRANSPIRATION =          12639.57
           STREAMFLOW =        1776995.03             STREAMFLOW =          18753.71
     GW BOUNDARY FLOW =          86305.25       GW BOUNDARY FLOW =            726.11

   INFLOWS - OUTFLOWS =        3763998.74     INFLOWS - OUTFLOWS =        2904384.25
             --------                                   --------

 TOTAL STORAGE CHANGE =        3766830.19         STORAGE CHANGE =        2904400.07
       --------------                             --------------
         LAND SURFACE =        3592460.11           LAND SURFACE =        2923864.12
            SOIL ZONE =        2216806.23              SOIL ZONE =          -7048.88
     UNSATURATED ZONE =       -1492417.18       UNSATURATED ZONE =          -5365.98
       SATURATED ZONE =        -550018.98         SATURATED ZONE =          -7049.18

 OVERALL BUDGET ERROR =          -2831.45           BUDGET ERROR =            -15.83


  PERCENT DISCREPANCY =             -0.03    PERCENT DISCREPANCY =             -0.00



1
 SUMMARY VOLUMETRIC BUDGET FOR GSFLOW 
 DATE: 02 03 1981              CUMULATIVE TIME STEP:     126
 MODFLOW STRESS PERIOD      2     CURRENT TIME STEP:     126     ITERATIONS:       6

 -----------------------------------------------------------------------------------

   CUMULATIVE VOLUMES               L**3   RATES FOR THIS TIME STEP           L**3/T
   ------------------                      ------------------------

                                     IN                                         IN
                                     --                                         --
        PRECIPITATION =        1.1739D+07          PRECIPITATION =                  
           STREAMFLOW =                               STREAMFLOW =                  
     GW BOUNDARY FLOW =                         GW BOUNDARY FLOW =                  


                                    OUT                                        OUT
                                    ---                                        ---
   EVAPOTRANSPIRATION =        3054432.42     EVAPOTRANSPIRATION =           7106.06
           STREAMFLOW =        1904262.93             STREAMFLOW =          18061.92
     GW BOUNDARY FLOW =          91386.74       GW BOUNDARY FLOW =            725.85

   INFLOWS - OUTFLOWS =        6688606.68     INFLOWS - OUTFLOWS =         -25893.83
             --------                                   --------

 TOTAL STORAGE CHANGE =        6691521.72         STORAGE CHANGE =         -25882.67
       --------------                             --------------
         LAND SURFACE =        6649417.45           LAND SURFACE =          -7106.06
            SOIL ZONE =        2207124.65              SOIL ZONE =            445.80
     UNSATURATED ZONE =       -1562249.53       UNSATURATED ZONE =         -11308.91
       SATURATED ZONE =        -602770.84         SATURATED ZONE =          -7913.50

 OVERALL BUDGET ERROR =          -2915.04           BUDGET ERROR =            -11.17


  PERCENT DISCREPANCY =             -0.02    PERCENT DISCREPANCY =             -0.04



1
 SUMMARY VOLUMETRIC BUDGET FOR GSFLOW 
 DATE: 02 10 1981              CUMULATIVE TIME STEP:     133
 MODFLOW STRESS PERIOD      2     CURRENT TIME STEP:     133     ITERATIONS:       5

 -----------------------------------------------------------------------------------

   CUMULATIVE VOLUMES               L**3   RATES FOR THIS TIME STEP           L**3/T
   ------------------                      ------------------------

                                     IN                                         IN
                                     --                                         --
        PRECIPITATION =        1.1838D+07          PRECIPITATION =                  
           STREAMFLOW =                               STREAMFLOW =                  
     GW BOUNDARY FLOW =                         GW BOUNDARY FLOW =                  


                                    OUT                                        OUT
                                    ---                                        ---
   EVAPOTRANSPIRATION =        3175535.94     EVAPOTRANSPIRATION =          32343.27
           STREAMFLOW =        2030714.92             STREAMFLOW =          18073.33
     GW BOUNDARY FLOW =          96467.74       GW BOUNDARY FLOW =            725.85

   INFLOWS - OUTFLOWS =        6535534.68     INFLOWS - OUTFLOWS =         -51142.45
             --------                                   --------

 TOTAL STORAGE CHANGE =        6538549.97         STORAGE CHANGE =         -51123.77
       --------------                             --------------
         LAND SURFACE =        6627878.44           LAND SURFACE =         -32343.27
            SOIL ZONE =        2210950.79              SOIL ZONE =            478.60
     UNSATURATED ZONE =       -1638874.77       UNSATURATED ZONE =         -10567.65
       SATURATED ZONE =        -661404.49         SATURATED ZONE =          -8691.46

 OVERALL BUDGET ERROR =          -3015.29           BUDGET ERROR =            -18.68


  PERCENT DISCREPANCY =             -0.03    PERCENT DISCREPANCY =             -0.04



1
 SUMMARY VOLUMETRIC BUDGET FOR GSFLOW 
 DATE: 02 17 1981              CUMULATIVE TIME STEP:     140
 MODFLOW STRESS PERIOD      2     CURRENT TIME STEP:     140     ITERATIONS:      10

 -----------------------------------------------------------------------------------

   CUMULATIVE VOLUMES               L**3   RATES FOR THIS TIME STEP           L**3/T
   ------------------                      ------------------------

                                     IN                                         IN
                                     --                                         --
        PRECIPITATION =        1.2765D+07          PRECIPITATION =          68929.28
           STREAMFLOW =                               STREAMFLOW =                  
     GW BOUNDARY FLOW =                         GW BOUNDARY FLOW =                  


                                    OUT                                        OUT
                                    ---                                        ---
   EVAPOTRANSPIRATION =        3496511.14     EVAPOTRANSPIRATION =          57077.36
           STREAMFLOW =        2553869.47             STREAMFLOW =         122769.10
     GW BOUNDARY FLOW =         101576.08       GW BOUNDARY FLOW =            734.30

   INFLOWS - OUTFLOWS =        6613012.42     INFLOWS - OUTFLOWS =        -111651.48
             --------                                   --------

 TOTAL STORAGE CHANGE =        6616143.21         STORAGE CHANGE =        -111638.61
       --------------                             --------------
         LAND SURFACE =        5733342.67           LAND SURFACE =        -263707.48
            SOIL ZONE =        2958279.96              SOIL ZONE =          71779.58
     UNSATURATED ZONE =       -1394854.59       UNSATURATED ZONE =          78176.01
       SATURATED ZONE =        -680624.83         SATURATED ZONE =           2113.28

 OVERALL BUDGET ERROR =          -3130.79           BUDGET ERROR =            -12.88


  PERCENT DISCREPANCY =             -0.02    PERCENT DISCREPANCY =             -0.01



1
 SUMMARY VOLUMETRIC BUDGET FOR GSFLOW 
 DATE: 02 24 1981              CUMULATIVE TIME STEP:     147
 MODFLOW STRESS PERIOD      2     CURRENT TIME STEP:     147     ITERATIONS:       9

 -----------------------------------------------------------------------------------

   CUMULATIVE VOLUMES               L**3   RATES FOR THIS TIME STEP           L**3/T
   ------------------                      ------------------------

                                     IN                                         IN
                                     --                                         --
        PRECIPITATION =        1.3179D+07          PRECIPITATION =         344646.37
           STREAMFLOW =                               STREAMFLOW =                  
     GW BOUNDARY FLOW =                         GW BOUNDARY FLOW =                  


                                    OUT                                        OUT
                                    ---                                        ---
   EVAPOTRANSPIRATION =        3805488.46     EVAPOTRANSPIRATION =          18156.56
           STREAMFLOW =        3119235.11             STREAMFLOW =          52053.88
     GW BOUNDARY FLOW =         106712.11       GW BOUNDARY FLOW =            732.35

   INFLOWS - OUTFLOWS =        6147109.08     INFLOWS - OUTFLOWS =         273703.58
             --------                                   --------

 TOTAL STORAGE CHANGE =        6150267.90         STORAGE CHANGE =         273701.50
       --------------                             --------------
         LAND SURFACE =        5134001.49           LAND SURFACE =         302140.02
            SOIL ZONE =        2700204.98              SOIL ZONE =         -61046.78
     UNSATURATED ZONE =       -1028237.53       UNSATURATED ZONE =          29936.25
       SATURATED ZONE =        -655701.05         SATURATED ZONE =           2672.01

 OVERALL BUDGET ERROR =          -3158.82           BUDGET ERROR =              2.08


  PERCENT DISCREPANCY =             -0.02    PERCENT DISCREPANCY =              0.00



1
 SUMMARY VOLUMETRIC BUDGET FOR GSFLOW 
 DATE: 03 03 1981              CUMULATIVE TIME STEP:     154
 MODFLOW STRESS PERIOD      2     CURRENT TIME STEP:     154     ITERATIONS:       8

 -----------------------------------------------------------------------------------

   CUMULATIVE VOLUMES               L**3   RATES FOR THIS TIME STEP           L**3/T
   ------------------                      ------------------------

                                     IN                                         IN
                                     --                                         --
        PRECIPITATION =        1.3447D+07          PRECIPITATION =                  
           STREAMFLOW =                               STREAMFLOW =                  
     GW BOUNDARY FLOW =                         GW BOUNDARY FLOW =                  


                                    OUT                                        OUT
                                    ---                                        ---
   EVAPOTRANSPIRATION =        3952041.97     EVAPOTRANSPIRATION =          40411.55
           STREAMFLOW =        3343076.75             STREAMFLOW =          27328.25
     GW BOUNDARY FLOW =         111820.21       GW BOUNDARY FLOW =            728.45

   INFLOWS - OUTFLOWS =        6039664.11     INFLOWS - OUTFLOWS =         -68468.25
             --------                                   --------

 TOTAL STORAGE CHANGE =        6042779.67         STORAGE CHANGE =         -68474.03
       --------------                             --------------
         LAND SURFACE =        5236571.40           LAND SURFACE =         -57449.18
            SOIL ZONE =        2484522.17              SOIL ZONE =            153.33
     UNSATURATED ZONE =       -1020887.36       UNSATURATED ZONE =          -9504.97
       SATURATED ZONE =        -657426.54         SATURATED ZONE =          -1673.21

 OVERALL BUDGET ERROR =          -3115.56           BUDGET ERROR =              5.78


  PERCENT DISCREPANCY =             -0.02    PERCENT DISCREPANCY =              0.01



1
 SUMMARY VOLUMETRIC BUDGET FOR GSFLOW 
 DATE: 03 10 1981              CUMULATIVE TIME STEP:     161
 MODFLOW STRESS PERIOD      2     CURRENT TIME STEP:     161     ITERATIONS:       8

 -----------------------------------------------------------------------------------

   CUMULATIVE VOLUMES               L**3   RATES FOR THIS TIME STEP           L**3/T
   ------------------                      ------------------------

                                     IN                                         IN
                                     --                                         --
        PRECIPITATION =        1.3493D+07          PRECIPITATION =                  
           STREAMFLOW =                               STREAMFLOW =                  
     GW BOUNDARY FLOW =                         GW BOUNDARY FLOW =                  


                                    OUT                                        OUT
                                    ---                                        ---
   EVAPOTRANSPIRATION =        4239828.65     EVAPOTRANSPIRATION =          59674.26
           STREAMFLOW =        3567755.40             STREAMFLOW =          41546.00
     GW BOUNDARY FLOW =         116918.05       GW BOUNDARY FLOW =            729.03

   INFLOWS - OUTFLOWS =        5568439.06     INFLOWS - OUTFLOWS =        -101949.29
             --------                                   --------

 TOTAL STORAGE CHANGE =        5571543.56         STORAGE CHANGE =        -101947.98
       --------------                             --------------
         LAND SURFACE =        4665498.34           LAND SURFACE =        -147188.93
            SOIL ZONE =        2588023.05              SOIL ZONE =          29730.31
     UNSATURATED ZONE =       -1011531.27       UNSATURATED ZONE =          16532.05
       SATURATED ZONE =        -670446.56         SATURATED ZONE =          -1021.41

 OVERALL BUDGET ERROR =          -3104.50           BUDGET ERROR =             -1.31


  PERCENT DISCREPANCY =             -0.02    PERCENT DISCREPANCY =             -0.00



1
 SUMMARY VOLUMETRIC BUDGET FOR GSFLOW 
 DATE: 03 17 1981              CUMULATIVE TIME STEP:     168
 MODFLOW STRESS PERIOD      2     CURRENT TIME STEP:     168     ITERATIONS:       7

 -----------------------------------------------------------------------------------

   CUMULATIVE VOLUMES               L**3   RATES FOR THIS TIME STEP           L**3/T
   ------------------                      ------------------------

                                     IN                                         IN
                                     --                                         --
        PRECIPITATION =        1.3744D+07          PRECIPITATION =                  
           STREAMFLOW =                               STREAMFLOW =                  
     GW BOUNDARY FLOW =                         GW BOUNDARY FLOW =                  


                                    OUT                                        OUT
                                    ---                                        ---
   EVAPOTRANSPIRATION =        4554285.43     EVAPOTRANSPIRATION =          33262.65
           STREAMFLOW =        3789767.98             STREAMFLOW =          23928.30
     GW BOUNDARY FLOW =         122018.24       GW BOUNDARY FLOW =            727.87

   INFLOWS - OUTFLOWS =        5278419.24     INFLOWS - OUTFLOWS =         -57918.82
             --------                                   --------

 TOTAL STORAGE CHANGE =        5281507.08         STORAGE CHANGE =         -57916.47
       --------------                             --------------
         LAND SURFACE =        4532338.70           LAND SURFACE =         -32994.50
            SOIL ZONE =        2438315.91              SOIL ZONE =          -5424.78
     UNSATURATED ZONE =        -998666.26       UNSATURATED ZONE =         -14699.58
       SATURATED ZONE =        -690481.27         SATURATED ZONE =          -4797.60

 OVERALL BUDGET ERROR =          -3087.84           BUDGET ERROR =             -2.36


  PERCENT DISCREPANCY =             -0.02    PERCENT DISCREPANCY =             -0.00



1
 SUMMARY VOLUMETRIC BUDGET FOR GSFLOW 
 DATE: 03 24 1981              CUMULATIVE TIME STEP:     175
 MODFLOW STRESS PERIOD      2     CURRENT TIME STEP:     175     ITERATIONS:       6

 -----------------------------------------------------------------------------------

   CUMULATIVE VOLUMES               L**3   RATES FOR THIS TIME STEP           L**3/T
   ------------------                      ------------------------

                                     IN                                         IN
                                     --                                         --
        PRECIPITATION =        1.4367D+07          PRECIPITATION =                  
           STREAMFLOW =                               STREAMFLOW =                  
     GW BOUNDARY FLOW =                         GW BOUNDARY FLOW =                  


                                    OUT                                        OUT
                                    ---                                        ---
   EVAPOTRANSPIRATION =        4874108.70     EVAPOTRANSPIRATION =          80764.17
           STREAMFLOW =        3955974.84             STREAMFLOW =          25190.80
     GW BOUNDARY FLOW =         127109.40       GW BOUNDARY FLOW =            727.19

   INFLOWS - OUTFLOWS =        5409552.58     INFLOWS - OUTFLOWS =        -106682.16
             --------                                   --------

 TOTAL STORAGE CHANGE =        5412664.44         STORAGE CHANGE =        -106680.06
       --------------                             --------------
         LAND SURFACE =        4882235.51           LAND SURFACE =         -56598.13
            SOIL ZONE =        2338576.77              SOIL ZONE =         -38200.53
     UNSATURATED ZONE =       -1079674.97       UNSATURATED ZONE =          -6286.74
       SATURATED ZONE =        -728472.87         SATURATED ZONE =          -5594.67

 OVERALL BUDGET ERROR =          -3111.86           BUDGET ERROR =             -2.09


  PERCENT DISCREPANCY =             -0.02    PERCENT DISCREPANCY =             -0.00



1
 SUMMARY VOLUMETRIC BUDGET FOR GSFLOW 
 DATE: 03 31 1981              CUMULATIVE TIME STEP:     182
 MODFLOW STRESS PERIOD      2     CURRENT TIME STEP:     182     ITERATIONS:       8

 -----------------------------------------------------------------------------------

   CUMULATIVE VOLUMES               L**3   RATES FOR THIS TIME STEP           L**3/T
   ------------------                      ------------------------

                                     IN                                         IN
                                     --                                         --
        PRECIPITATION =        1.5777D+07          PRECIPITATION =                  
           STREAMFLOW =                               STREAMFLOW =                  
     GW BOUNDARY FLOW =                         GW BOUNDARY FLOW =                  


                                    OUT                                        OUT
                                    ---                                        ---
   EVAPOTRANSPIRATION =        5262282.00     EVAPOTRANSPIRATION =          42424.06
           STREAMFLOW =        4403732.44             STREAMFLOW =          33643.11
     GW BOUNDARY FLOW =         132225.15       GW BOUNDARY FLOW =            729.68

   INFLOWS - OUTFLOWS =        5978508.40     INFLOWS - OUTFLOWS =         -76796.84
             --------                                   --------

 TOTAL STORAGE CHANGE =        5981613.72         STORAGE CHANGE =         -76802.86
       --------------                             --------------
         LAND SURFACE =        5101875.75           LAND SURFACE =         -42987.31
            SOIL ZONE =        2504390.89              SOIL ZONE =         -32368.38
     UNSATURATED ZONE =        -891768.18       UNSATURATED ZONE =           1135.89
       SATURATED ZONE =        -732884.75         SATURATED ZONE =          -2583.05

 OVERALL BUDGET ERROR =          -3105.32           BUDGET ERROR =              6.01


  PERCENT DISCREPANCY =             -0.02    PERCENT DISCREPANCY =              0.01



1
 SUMMARY VOLUMETRIC BUDGET FOR GSFLOW 
 DATE: 04 07 1981              CUMULATIVE TIME STEP:     189
 MODFLOW STRESS PERIOD      2     CURRENT TIME STEP:     189     ITERATIONS:       7

 -----------------------------------------------------------------------------------

   CUMULATIVE VOLUMES               L**3   RATES FOR THIS TIME STEP           L**3/T
   ------------------                      ------------------------

                                     IN                                         IN
                                     --                                         --
        PRECIPITATION =        1.6121D+07          PRECIPITATION =                  
           STREAMFLOW =                               STREAMFLOW =                  
     GW BOUNDARY FLOW =                         GW BOUNDARY FLOW =                  


                                    OUT                                        OUT
                                    ---                                        ---
   EVAPOTRANSPIRATION =        5856730.80     EVAPOTRANSPIRATION =          97287.85
           STREAMFLOW =        4698149.48             STREAMFLOW =          42055.38
     GW BOUNDARY FLOW =         137333.68       GW BOUNDARY FLOW =            730.22

   INFLOWS - OUTFLOWS =        5429253.64     INFLOWS - OUTFLOWS =        -140073.45
             --------                                   --------

 TOTAL STORAGE CHANGE =        5432335.49         STORAGE CHANGE =        -140077.24
       --------------                             --------------
         LAND SURFACE =        4536824.49           LAND SURFACE =        -138203.79
            SOIL ZONE =        2465827.34              SOIL ZONE =         -11835.22
     UNSATURATED ZONE =        -828597.22       UNSATURATED ZONE =          11014.32
       SATURATED ZONE =        -741719.11         SATURATED ZONE =          -1052.55

 OVERALL BUDGET ERROR =          -3081.85           BUDGET ERROR =              3.79


  PERCENT DISCREPANCY =             -0.02    PERCENT DISCREPANCY =              0.00



1
 SUMMARY VOLUMETRIC BUDGET FOR GSFLOW 
 DATE: 04 14 1981              CUMULATIVE TIME STEP:     196
 MODFLOW STRESS PERIOD      2     CURRENT TIME STEP:     196     ITERATIONS:       9

 -----------------------------------------------------------------------------------

   CUMULATIVE VOLUMES               L**3   RATES FOR THIS TIME STEP           L**3/T
   ------------------                      ------------------------

                                     IN                                         IN
                                     --                                         --
        PRECIPITATION =        1.6121D+07          PRECIPITATION =                  
           STREAMFLOW =                               STREAMFLOW =                  
     GW BOUNDARY FLOW =                         GW BOUNDARY FLOW =                  


                                    OUT                                        OUT
                                    ---                                        ---
   EVAPOTRANSPIRATION =        6720159.96     EVAPOTRANSPIRATION =         187136.52
           STREAMFLOW =        5034690.27             STREAMFLOW =          60707.68
     GW BOUNDARY FLOW =         142446.18       GW BOUNDARY FLOW =            730.78

   INFLOWS - OUTFLOWS =        4224171.20     INFLOWS - OUTFLOWS =        -248574.97
             --------                                   --------

 TOTAL STORAGE CHANGE =        4227243.27         STORAGE CHANGE =        -248573.88
       --------------                             --------------
         LAND SURFACE =        3249108.87           LAND SURFACE =        -276414.16
            SOIL ZONE =        2437709.85              SOIL ZONE =           -672.91
     UNSATURATED ZONE =        -716422.26       UNSATURATED ZONE =          26844.53
       SATURATED ZONE =        -743153.19         SATURATED ZONE =           1668.67

 OVERALL BUDGET ERROR =          -3072.07           BUDGET ERROR =             -1.10


  PERCENT DISCREPANCY =             -0.02    PERCENT DISCREPANCY =             -0.00



1
 SUMMARY VOLUMETRIC BUDGET FOR GSFLOW 
 DATE: 04 21 1981              CUMULATIVE TIME STEP:     203
 MODFLOW STRESS PERIOD      2     CURRENT TIME STEP:     203     ITERATIONS:       9

 -----------------------------------------------------------------------------------

   CUMULATIVE VOLUMES               L**3   RATES FOR THIS TIME STEP           L**3/T
   ------------------                      ------------------------

                                     IN                                         IN
                                     --                                         --
        PRECIPITATION =        1.6310D+07          PRECIPITATION =                  
           STREAMFLOW =                               STREAMFLOW =                  
     GW BOUNDARY FLOW =                         GW BOUNDARY FLOW =                  


                                    OUT                                        OUT
                                    ---                                        ---
   EVAPOTRANSPIRATION =        7765002.92     EVAPOTRANSPIRATION =         153820.79
           STREAMFLOW =        5420431.13             STREAMFLOW =          53733.93
     GW BOUNDARY FLOW =         147557.33       GW BOUNDARY FLOW =            729.75

   INFLOWS - OUTFLOWS =        2977251.27     INFLOWS - OUTFLOWS =        -208284.46
             --------                                   --------

 TOTAL STORAGE CHANGE =        2980314.76         STORAGE CHANGE =        -208287.04
       --------------                             --------------
         LAND SURFACE =        1941586.44           LAND SURFACE =        -141315.80
            SOIL ZONE =        2323413.85              SOIL ZONE =         -93452.89
     UNSATURATED ZONE =        -557876.83       UNSATURATED ZONE =          23030.68
       SATURATED ZONE =        -726808.69         SATURATED ZONE =           3450.97

 OVERALL BUDGET ERROR =          -3063.49           BUDGET ERROR =              2.58


  PERCENT DISCREPANCY =             -0.02    PERCENT DISCREPANCY =              0.00



1
 SUMMARY VOLUMETRIC BUDGET FOR GSFLOW 
 DATE: 04 28 1981              CUMULATIVE TIME STEP:     210
 MODFLOW STRESS PERIOD      2     CURRENT TIME STEP:     210     ITERATIONS:      10

 -----------------------------------------------------------------------------------

   CUMULATIVE VOLUMES               L**3   RATES FOR THIS TIME STEP           L**3/T
   ------------------                      ------------------------

                                     IN                                         IN
                                     --                                         --
        PRECIPITATION =        1.6515D+07          PRECIPITATION =                  
           STREAMFLOW =                               STREAMFLOW =                  
     GW BOUNDARY FLOW =                         GW BOUNDARY FLOW =                  


                                    OUT                                        OUT
                                    ---                                        ---
   EVAPOTRANSPIRATION =        9019675.18     EVAPOTRANSPIRATION =         211124.30
           STREAMFLOW =        5680219.28             STREAMFLOW =          30439.82
     GW BOUNDARY FLOW =         152654.75       GW BOUNDARY FLOW =            727.02

   INFLOWS - OUTFLOWS =        1662883.67     INFLOWS - OUTFLOWS =        -242291.14
             --------                                   --------

 TOTAL STORAGE CHANGE =        1665923.51         STORAGE CHANGE =        -242292.95
       --------------                             --------------
         LAND SURFACE =        1047886.52           LAND SURFACE =        -108965.88
            SOIL ZONE =        1834109.46              SOIL ZONE =        -138478.66
     UNSATURATED ZONE =        -504445.36       UNSATURATED ZONE =           3461.00
       SATURATED ZONE =        -711627.11         SATURATED ZONE =           1690.58

 OVERALL BUDGET ERROR =          -3039.84           BUDGET ERROR =              1.81


  PERCENT DISCREPANCY =             -0.02    PERCENT DISCREPANCY =              0.00



1
 SUMMARY VOLUMETRIC BUDGET FOR GSFLOW 
 DATE: 05 05 1981              CUMULATIVE TIME STEP:     217
 MODFLOW STRESS PERIOD      2     CURRENT TIME STEP:     217     ITERATIONS:      10

 -----------------------------------------------------------------------------------

   CUMULATIVE VOLUMES               L**3   RATES FOR THIS TIME STEP           L**3/T
   ------------------                      ------------------------

                                     IN                                         IN
                                     --                                         --
        PRECIPITATION =        1.6515D+07          PRECIPITATION =                  
           STREAMFLOW =                               STREAMFLOW =                  
     GW BOUNDARY FLOW =                         GW BOUNDARY FLOW =                  


                                    OUT                                        OUT
                                    ---                                        ---
   EVAPOTRANSPIRATION =        9878679.31     EVAPOTRANSPIRATION =          47092.53
           STREAMFLOW =        5803233.65             STREAMFLOW =          11678.20
     GW BOUNDARY FLOW =         157733.61       GW BOUNDARY FLOW =            724.48

   INFLOWS - OUTFLOWS =         675786.32     INFLOWS - OUTFLOWS =         -59495.20
             --------                                   --------

 TOTAL STORAGE CHANGE =         678828.92         STORAGE CHANGE =         -59492.39
       --------------                             --------------
         LAND SURFACE =         583908.85           LAND SURFACE =         -19597.75
            SOIL ZONE =        1388092.33              SOIL ZONE =         -23372.55
     UNSATURATED ZONE =        -572038.71       UNSATURATED ZONE =         -14033.57
       SATURATED ZONE =        -721133.56         SATURATED ZONE =          -2488.52

 OVERALL BUDGET ERROR =          -3042.59           BUDGET ERROR =             -2.81


  PERCENT DISCREPANCY =             -0.02    PERCENT DISCREPANCY =             -0.00



1
 SUMMARY VOLUMETRIC BUDGET FOR GSFLOW 
 DATE: 05 12 1981              CUMULATIVE TIME STEP:     224
 MODFLOW STRESS PERIOD      2     CURRENT TIME STEP:     224     ITERATIONS:      10

 -----------------------------------------------------------------------------------

   CUMULATIVE VOLUMES               L**3   RATES FOR THIS TIME STEP           L**3/T
   ------------------                      ------------------------

                                     IN                                         IN
                                     --                                         --
        PRECIPITATION =        1.6515D+07          PRECIPITATION =                  
           STREAMFLOW =                               STREAMFLOW =                  
     GW BOUNDARY FLOW =                         GW BOUNDARY FLOW =                  


                                    OUT                                        OUT
                                    ---                                        ---
   EVAPOTRANSPIRATION =        1.0411D+07     EVAPOTRANSPIRATION =         101854.19
           STREAMFLOW =        5884099.94             STREAMFLOW =          12802.60
     GW BOUNDARY FLOW =         162801.13       GW BOUNDARY FLOW =            723.84

   INFLOWS - OUTFLOWS =          57032.83     INFLOWS - OUTFLOWS =        -115380.62
             --------                                   --------

 TOTAL STORAGE CHANGE =          60099.52         STORAGE CHANGE =        -115376.13
       --------------                             --------------
         LAND SURFACE =         364139.11           LAND SURFACE =         -39545.56
            SOIL ZONE =        1106093.08              SOIL ZONE =         -60961.07
     UNSATURATED ZONE =        -663070.32       UNSATURATED ZONE =         -10387.96
       SATURATED ZONE =        -747062.35         SATURATED ZONE =          -4481.53

 OVERALL BUDGET ERROR =          -3066.69           BUDGET ERROR =             -4.49


  PERCENT DISCREPANCY =             -0.02    PERCENT DISCREPANCY =             -0.00



1
 SUMMARY VOLUMETRIC BUDGET FOR GSFLOW 
 DATE: 05 19 1981              CUMULATIVE TIME STEP:     231
 MODFLOW STRESS PERIOD      2     CURRENT TIME STEP:     231     ITERATIONS:      12

 -----------------------------------------------------------------------------------

   CUMULATIVE VOLUMES               L**3   RATES FOR THIS TIME STEP           L**3/T
   ------------------                      ------------------------

                                     IN                                         IN
                                     --                                         --
        PRECIPITATION =        1.7837D+07          PRECIPITATION =         169045.43
           STREAMFLOW =                               STREAMFLOW =                  
     GW BOUNDARY FLOW =                         GW BOUNDARY FLOW =                  


                                    OUT                                        OUT
                                    ---                                        ---
   EVAPOTRANSPIRATION =        1.0752D+07     EVAPOTRANSPIRATION =          31098.89
           STREAMFLOW =        6038565.23             STREAMFLOW =          31814.93
     GW BOUNDARY FLOW =         167871.28       GW BOUNDARY FLOW =            725.90

   INFLOWS - OUTFLOWS =         878604.45     INFLOWS - OUTFLOWS =         105405.70
             --------                                   --------

 TOTAL STORAGE CHANGE =         881699.89         STORAGE CHANGE =         105409.77
       --------------                             --------------
         LAND SURFACE =         315733.69           LAND SURFACE =          16905.78
            SOIL ZONE =        2048094.75              SOIL ZONE =          85698.47
     UNSATURATED ZONE =        -700694.59       UNSATURATED ZONE =           6837.70
       SATURATED ZONE =        -781433.96         SATURATED ZONE =          -4032.17

 OVERALL BUDGET ERROR =          -3095.45           BUDGET ERROR =             -4.07


  PERCENT DISCREPANCY =             -0.02    PERCENT DISCREPANCY =             -0.00



1
 SUMMARY VOLUMETRIC BUDGET FOR GSFLOW 
 DATE: 05 26 1981              CUMULATIVE TIME STEP:     238
 MODFLOW STRESS PERIOD      2     CURRENT TIME STEP:     238     ITERATIONS:      11

 -----------------------------------------------------------------------------------

   CUMULATIVE VOLUMES               L**3   RATES FOR THIS TIME STEP           L**3/T
   ------------------                      ------------------------

                                     IN                                         IN
                                     --                                         --
        PRECIPITATION =        1.8252D+07          PRECIPITATION =         284303.67
           STREAMFLOW =                               STREAMFLOW =                  
     GW BOUNDARY FLOW =                         GW BOUNDARY FLOW =                  


                                    OUT                                        OUT
                                    ---                                        ---
   EVAPOTRANSPIRATION =        1.1550D+07     EVAPOTRANSPIRATION =         126247.52
           STREAMFLOW =        6176692.12             STREAMFLOW =          24172.92
     GW BOUNDARY FLOW =         172945.27       GW BOUNDARY FLOW =            724.59

   INFLOWS - OUTFLOWS =         351930.59     INFLOWS - OUTFLOWS =         133158.64
             --------                                   --------

 TOTAL STORAGE CHANGE =         355047.51         STORAGE CHANGE =         133163.13
       --------------                             --------------
         LAND SURFACE =         197572.66           LAND SURFACE =         -13397.86
            SOIL ZONE =        1708017.50              SOIL ZONE =         158544.16
     UNSATURATED ZONE =        -729016.74       UNSATURATED ZONE =          -6597.66
       SATURATED ZONE =        -821525.90         SATURATED ZONE =          -5385.52

 OVERALL BUDGET ERROR =          -3116.92           BUDGET ERROR =             -4.49


  PERCENT DISCREPANCY =             -0.02    PERCENT DISCREPANCY =             -0.00



1
 SUMMARY VOLUMETRIC BUDGET FOR GSFLOW 
 DATE: 06 02 1981              CUMULATIVE TIME STEP:     245
 MODFLOW STRESS PERIOD      2     CURRENT TIME STEP:     245     ITERATIONS:       9

 -----------------------------------------------------------------------------------

   CUMULATIVE VOLUMES               L**3   RATES FOR THIS TIME STEP           L**3/T
   ------------------                      ------------------------

                                     IN                                         IN
                                     --                                         --
        PRECIPITATION =        1.8318D+07          PRECIPITATION =          50869.96
           STREAMFLOW =                               STREAMFLOW =                  
     GW BOUNDARY FLOW =                         GW BOUNDARY FLOW =                  


                                    OUT                                        OUT
                                    ---                                        ---
   EVAPOTRANSPIRATION =        1.2379D+07     EVAPOTRANSPIRATION =          66836.69
           STREAMFLOW =        6263035.37             STREAMFLOW =           9101.64
     GW BOUNDARY FLOW =         178011.20       GW BOUNDARY FLOW =            723.01

   INFLOWS - OUTFLOWS =        -502105.70     INFLOWS - OUTFLOWS =         -25791.39
             --------                                   --------

 TOTAL STORAGE CHANGE =        -498950.41         STORAGE CHANGE =         -25785.37
       --------------                             --------------
         LAND SURFACE =         119474.96           LAND SURFACE =          25659.25
            SOIL ZONE =        1061808.18              SOIL ZONE =         -31271.40
     UNSATURATED ZONE =        -808248.44       UNSATURATED ZONE =         -12478.24
       SATURATED ZONE =        -871985.11         SATURATED ZONE =          -7694.97

 OVERALL BUDGET ERROR =          -3155.29           BUDGET ERROR =             -6.02


  PERCENT DISCREPANCY =             -0.02    PERCENT DISCREPANCY =             -0.01



1
 SUMMARY VOLUMETRIC BUDGET FOR GSFLOW 
 DATE: 06 09 1981              CUMULATIVE TIME STEP:     252
 MODFLOW STRESS PERIOD      2     CURRENT TIME STEP:     252     ITERATIONS:      10

 -----------------------------------------------------------------------------------

   CUMULATIVE VOLUMES               L**3   RATES FOR THIS TIME STEP           L**3/T
   ------------------                      ------------------------

                                     IN                                         IN
                                     --                                         --
        PRECIPITATION =        1.8318D+07          PRECIPITATION =                  
           STREAMFLOW =                               STREAMFLOW =                  
     GW BOUNDARY FLOW =                         GW BOUNDARY FLOW =                  


                                    OUT                                        OUT
                                    ---                                        ---
   EVAPOTRANSPIRATION =        1.2930D+07     EVAPOTRANSPIRATION =          55948.18
           STREAMFLOW =        6317888.08             STREAMFLOW =           7227.80
     GW BOUNDARY FLOW =         183069.20       GW BOUNDARY FLOW =            722.32

   INFLOWS - OUTFLOWS =       -1113172.02     INFLOWS - OUTFLOWS =         -63898.30
             --------                                   --------

 TOTAL STORAGE CHANGE =       -1109978.08         STORAGE CHANGE =         -63892.99
       --------------                             --------------
         LAND SURFACE =          39669.52           LAND SURFACE =          -4382.74
            SOIL ZONE =         673021.55              SOIL ZONE =         -38934.22
     UNSATURATED ZONE =        -893315.96       UNSATURATED ZONE =         -12174.47
       SATURATED ZONE =        -929353.18         SATURATED ZONE =          -8401.57

 OVERALL BUDGET ERROR =          -3193.94           BUDGET ERROR =             -5.30


  PERCENT DISCREPANCY =             -0.02    PERCENT DISCREPANCY =             -0.01



1
 SUMMARY VOLUMETRIC BUDGET FOR GSFLOW 
 DATE: 06 16 1981              CUMULATIVE TIME STEP:     259
 MODFLOW STRESS PERIOD      2     CURRENT TIME STEP:     259     ITERATIONS:       9

 -----------------------------------------------------------------------------------

   CUMULATIVE VOLUMES               L**3   RATES FOR THIS TIME STEP           L**3/T
   ------------------                      ------------------------

                                     IN                                         IN
                                     --                                         --
        PRECIPITATION =        1.8318D+07          PRECIPITATION =                  
           STREAMFLOW =                               STREAMFLOW =                  
     GW BOUNDARY FLOW =                         GW BOUNDARY FLOW =                  


                                    OUT                                        OUT
                                    ---                                        ---
   EVAPOTRANSPIRATION =        1.3140D+07     EVAPOTRANSPIRATION =          47670.19
           STREAMFLOW =        6365679.63             STREAMFLOW =           6675.56
     GW BOUNDARY FLOW =         188124.09       GW BOUNDARY FLOW =            722.02

   INFLOWS - OUTFLOWS =       -1375513.60     INFLOWS - OUTFLOWS =         -55067.76
             --------                                   --------

 TOTAL STORAGE CHANGE =       -1372281.49         STORAGE CHANGE =         -55062.47
       --------------                             --------------
         LAND SURFACE =          25589.67           LAND SURFACE =          -3042.77
            SOIL ZONE =         574958.71              SOIL ZONE =         -30283.05
     UNSATURATED ZONE =        -983479.15       UNSATURATED ZONE =         -12957.48
       SATURATED ZONE =        -989350.72         SATURATED ZONE =          -8779.17

 OVERALL BUDGET ERROR =          -3232.12           BUDGET ERROR =             -5.30


  PERCENT DISCREPANCY =             -0.02    PERCENT DISCREPANCY =             -0.01



1
 SUMMARY VOLUMETRIC BUDGET FOR GSFLOW 
 DATE: 06 23 1981              CUMULATIVE TIME STEP:     266
 MODFLOW STRESS PERIOD      2     CURRENT TIME STEP:     266     ITERATIONS:      11

 -----------------------------------------------------------------------------------

   CUMULATIVE VOLUMES               L**3   RATES FOR THIS TIME STEP           L**3/T
   ------------------                      ------------------------

                                     IN                                         IN
                                     --                                         --
        PRECIPITATION =        1.8318D+07          PRECIPITATION =                  
           STREAMFLOW =                               STREAMFLOW =                  
     GW BOUNDARY FLOW =                         GW BOUNDARY FLOW =                  


                                    OUT                                        OUT
                                    ---                                        ---
   EVAPOTRANSPIRATION =        1.3484D+07     EVAPOTRANSPIRATION =          40398.41
           STREAMFLOW =        6410124.24             STREAMFLOW =           6105.55
     GW BOUNDARY FLOW =         193177.58       GW BOUNDARY FLOW =            722.05

   INFLOWS - OUTFLOWS =       -1768724.08     INFLOWS - OUTFLOWS =         -47226.01
             --------                                   --------

 TOTAL STORAGE CHANGE =       -1765452.97         STORAGE CHANGE =         -47220.40
       --------------                             --------------
         LAND SURFACE =           6959.28           LAND SURFACE =          -1578.51
            SOIL ZONE =         353827.93              SOIL ZONE =         -23801.19
     UNSATURATED ZONE =       -1072163.81       UNSATURATED ZONE =         -12442.24
       SATURATED ZONE =       -1054076.36         SATURATED ZONE =          -9398.45

 OVERALL BUDGET ERROR =          -3271.12           BUDGET ERROR =             -5.61


  PERCENT DISCREPANCY =             -0.02    PERCENT DISCREPANCY =             -0.01



1
 SUMMARY VOLUMETRIC BUDGET FOR GSFLOW 
 DATE: 06 30 1981              CUMULATIVE TIME STEP:     273
 MODFLOW STRESS PERIOD      2     CURRENT TIME STEP:     273     ITERATIONS:       9

 -----------------------------------------------------------------------------------

   CUMULATIVE VOLUMES               L**3   RATES FOR THIS TIME STEP           L**3/T
   ------------------                      ------------------------

                                     IN                                         IN
[...]
                                    ---                                        ---
   EVAPOTRANSPIRATION =        2.8293D+08     EVAPOTRANSPIRATION =          49170.83
           STREAMFLOW =        1.8489D+08             STREAMFLOW =           7434.90
     GW BOUNDARY FLOW =        4178091.21       GW BOUNDARY FLOW =            726.39

   INFLOWS - OUTFLOWS =       -6941185.93     INFLOWS - OUTFLOWS =         -57332.12
             --------                                   --------

 TOTAL STORAGE CHANGE =       -6923789.14         STORAGE CHANGE =         -57333.28
       --------------                             --------------
         LAND SURFACE =         214963.45           LAND SURFACE =         -10645.32
            SOIL ZONE =         332247.19              SOIL ZONE =         -24971.49
     UNSATURATED ZONE =        5198842.72       UNSATURATED ZONE =         -28929.03
       SATURATED ZONE =       -1.2670D+07         SATURATED ZONE =           7212.56

 OVERALL BUDGET ERROR =         -17396.79           BUDGET ERROR =              1.15


  PERCENT DISCREPANCY =             -0.00    PERCENT DISCREPANCY =              0.00



1
 SUMMARY VOLUMETRIC BUDGET FOR GSFLOW 
 DATE: 07 30 1996              CUMULATIVE TIME STEP:    5782
 MODFLOW STRESS PERIOD      2     CURRENT TIME STEP:    5782     ITERATIONS:      10

 -----------------------------------------------------------------------------------

   CUMULATIVE VOLUMES               L**3   RATES FOR THIS TIME STEP           L**3/T
   ------------------                      ------------------------

                                     IN                                         IN
                                     --                                         --
        PRECIPITATION =        4.6511D+08          PRECIPITATION =                  
           STREAMFLOW =                               STREAMFLOW =                  
     GW BOUNDARY FLOW =                         GW BOUNDARY FLOW =                  


                                    OUT                                        OUT
                                    ---                                        ---
   EVAPOTRANSPIRATION =        2.8324D+08     EVAPOTRANSPIRATION =          33541.35
           STREAMFLOW =        1.8494D+08             STREAMFLOW =           7123.81
     GW BOUNDARY FLOW =        4183173.76       GW BOUNDARY FLOW =            725.95

   INFLOWS - OUTFLOWS =       -7256768.61     INFLOWS - OUTFLOWS =         -41391.11
             --------                                   --------

 TOTAL STORAGE CHANGE =       -7239372.43         STORAGE CHANGE =         -41390.32
       --------------                             --------------
         LAND SURFACE =         152309.38           LAND SURFACE =          -7555.65
            SOIL ZONE =         232171.21              SOIL ZONE =         -12106.51
     UNSATURATED ZONE =        4999130.60       UNSATURATED ZONE =         -28085.69
       SATURATED ZONE =       -1.2623D+07         SATURATED ZONE =           6357.53

 OVERALL BUDGET ERROR =         -17396.18           BUDGET ERROR =             -0.79


  PERCENT DISCREPANCY =             -0.00    PERCENT DISCREPANCY =             -0.00



1
 SUMMARY VOLUMETRIC BUDGET FOR GSFLOW 
 DATE: 08 06 1996              CUMULATIVE TIME STEP:    5789
 MODFLOW STRESS PERIOD      2     CURRENT TIME STEP:    5789     ITERATIONS:      11

 -----------------------------------------------------------------------------------

   CUMULATIVE VOLUMES               L**3   RATES FOR THIS TIME STEP           L**3/T
   ------------------                      ------------------------

                                     IN                                         IN
                                     --                                         --
        PRECIPITATION =        4.6511D+08          PRECIPITATION =                  
           STREAMFLOW =                               STREAMFLOW =                  
     GW BOUNDARY FLOW =                         GW BOUNDARY FLOW =                  


                                    OUT                                        OUT
                                    ---                                        ---
   EVAPOTRANSPIRATION =        2.8343D+08     EVAPOTRANSPIRATION =          24669.20
           STREAMFLOW =        1.8499D+08             STREAMFLOW =           6835.41
     GW BOUNDARY FLOW =        4188254.59       GW BOUNDARY FLOW =            725.74

   INFLOWS - OUTFLOWS =       -7495253.42     INFLOWS - OUTFLOWS =         -32230.35
             --------                                   --------

 TOTAL STORAGE CHANGE =       -7477845.94         STORAGE CHANGE =         -32226.75
       --------------                             --------------
         LAND SURFACE =         111776.46           LAND SURFACE =          -5017.65
            SOIL ZONE =         184940.27              SOIL ZONE =          -5825.54
     UNSATURATED ZONE =        4808453.66       UNSATURATED ZONE =         -26528.57
       SATURATED ZONE =       -1.2583D+07         SATURATED ZONE =           5145.00

 OVERALL BUDGET ERROR =         -17407.48           BUDGET ERROR =             -3.60


  PERCENT DISCREPANCY =             -0.00    PERCENT DISCREPANCY =             -0.01



1
 SUMMARY VOLUMETRIC BUDGET FOR GSFLOW 
 DATE: 08 13 1996              CUMULATIVE TIME STEP:    5796
 MODFLOW STRESS PERIOD      2     CURRENT TIME STEP:    5796     ITERATIONS:      10

 -----------------------------------------------------------------------------------

   CUMULATIVE VOLUMES               L**3   RATES FOR THIS TIME STEP           L**3/T
   ------------------                      ------------------------

                                     IN                                         IN
                                     --                                         --
        PRECIPITATION =        4.6531D+08          PRECIPITATION =          54454.08
           STREAMFLOW =                               STREAMFLOW =                  
     GW BOUNDARY FLOW =                         GW BOUNDARY FLOW =                  


                                    OUT                                        OUT
                                    ---                                        ---
   EVAPOTRANSPIRATION =        2.8365D+08     EVAPOTRANSPIRATION =          37687.27
           STREAMFLOW =        1.8504D+08             STREAMFLOW =           8028.62
     GW BOUNDARY FLOW =        4193333.94       GW BOUNDARY FLOW =            725.62

   INFLOWS - OUTFLOWS =       -7567093.91     INFLOWS - OUTFLOWS =           8012.57
             --------                                   --------

 TOTAL STORAGE CHANGE =       -7549672.00         STORAGE CHANGE =           8014.29
       --------------                             --------------
         LAND SURFACE =         105220.94           LAND SURFACE =          -5194.35
            SOIL ZONE =         267765.12              SOIL ZONE =          34172.60
     UNSATURATED ZONE =        4627207.92       UNSATURATED ZONE =         -25470.00
       SATURATED ZONE =       -1.2550D+07         SATURATED ZONE =           4506.05

 OVERALL BUDGET ERROR =         -17421.91           BUDGET ERROR =             -1.72


  PERCENT DISCREPANCY =             -0.00    PERCENT DISCREPANCY =             -0.00



1
 SUMMARY VOLUMETRIC BUDGET FOR GSFLOW 
 DATE: 08 20 1996              CUMULATIVE TIME STEP:    5803
 MODFLOW STRESS PERIOD      2     CURRENT TIME STEP:    5803     ITERATIONS:       9

 -----------------------------------------------------------------------------------

   CUMULATIVE VOLUMES               L**3   RATES FOR THIS TIME STEP           L**3/T
   ------------------                      ------------------------

                                     IN                                         IN
                                     --                                         --
        PRECIPITATION =        4.6531D+08          PRECIPITATION =                  
           STREAMFLOW =                               STREAMFLOW =                  
     GW BOUNDARY FLOW =                         GW BOUNDARY FLOW =                  


                                    OUT                                        OUT
                                    ---                                        ---
   EVAPOTRANSPIRATION =        2.8387D+08     EVAPOTRANSPIRATION =          18561.80
           STREAMFLOW =        1.8509D+08             STREAMFLOW =           6577.24
     GW BOUNDARY FLOW =        4198411.14       GW BOUNDARY FLOW =            725.09

   INFLOWS - OUTFLOWS =       -7837183.80     INFLOWS - OUTFLOWS =         -25864.14
             --------                                   --------

 TOTAL STORAGE CHANGE =       -7819752.24         STORAGE CHANGE =         -25866.27
       --------------                             --------------
         LAND SURFACE =          44442.31           LAND SURFACE =          -2851.34
            SOIL ZONE =         204850.25              SOIL ZONE =          -2221.80
     UNSATURATED ZONE =        4455093.42       UNSATURATED ZONE =         -24069.64
       SATURATED ZONE =       -1.2524D+07         SATURATED ZONE =           3276.52

 OVERALL BUDGET ERROR =         -17431.56           BUDGET ERROR =              2.13


  PERCENT DISCREPANCY =             -0.00    PERCENT DISCREPANCY =              0.01



1
 SUMMARY VOLUMETRIC BUDGET FOR GSFLOW 
 DATE: 08 27 1996              CUMULATIVE TIME STEP:    5810
 MODFLOW STRESS PERIOD      2     CURRENT TIME STEP:    5810     ITERATIONS:       9

 -----------------------------------------------------------------------------------

   CUMULATIVE VOLUMES               L**3   RATES FOR THIS TIME STEP           L**3/T
   ------------------                      ------------------------

                                     IN                                         IN
                                     --                                         --
        PRECIPITATION =        4.6531D+08          PRECIPITATION =                  
           STREAMFLOW =                               STREAMFLOW =                  
     GW BOUNDARY FLOW =                         GW BOUNDARY FLOW =                  


                                    OUT                                        OUT
                                    ---                                        ---
   EVAPOTRANSPIRATION =        2.8403D+08     EVAPOTRANSPIRATION =          19210.55
           STREAMFLOW =        1.8513D+08             STREAMFLOW =           6405.98
     GW BOUNDARY FLOW =        4203484.90       GW BOUNDARY FLOW =            724.63

   INFLOWS - OUTFLOWS =       -8048352.67     INFLOWS - OUTFLOWS =         -26341.16
             --------                                   --------

 TOTAL STORAGE CHANGE =       -8030927.72         STORAGE CHANGE =         -26341.82
       --------------                             --------------
         LAND SURFACE =          21435.24           LAND SURFACE =          -2621.72
            SOIL ZONE =         161122.67              SOIL ZONE =          -3199.69
     UNSATURATED ZONE =        4291569.69       UNSATURATED ZONE =         -22653.38
       SATURATED ZONE =       -1.2505D+07         SATURATED ZONE =           2132.98

 OVERALL BUDGET ERROR =         -17424.95           BUDGET ERROR =              0.65


  PERCENT DISCREPANCY =             -0.00    PERCENT DISCREPANCY =              0.00



1
 SUMMARY VOLUMETRIC BUDGET FOR GSFLOW 
 DATE: 09 03 1996              CUMULATIVE TIME STEP:    5817
 MODFLOW STRESS PERIOD      2     CURRENT TIME STEP:    5817     ITERATIONS:       9

 -----------------------------------------------------------------------------------

   CUMULATIVE VOLUMES               L**3   RATES FOR THIS TIME STEP           L**3/T
   ------------------                      ------------------------

                                     IN                                         IN
                                     --                                         --
        PRECIPITATION =        4.6531D+08          PRECIPITATION =                  
           STREAMFLOW =                               STREAMFLOW =                  
     GW BOUNDARY FLOW =                         GW BOUNDARY FLOW =                  


                                    OUT                                        OUT
                                    ---                                        ---
   EVAPOTRANSPIRATION =        2.8415D+08     EVAPOTRANSPIRATION =          15549.74
           STREAMFLOW =        1.8518D+08             STREAMFLOW =           6287.96
     GW BOUNDARY FLOW =        4208555.47       GW BOUNDARY FLOW =            724.18

   INFLOWS - OUTFLOWS =       -8219161.25     INFLOWS - OUTFLOWS =         -22561.89
             --------                                   --------

 TOTAL STORAGE CHANGE =       -8201741.47         STORAGE CHANGE =         -22562.84
       --------------                             --------------
         LAND SURFACE =           7240.32           LAND SURFACE =          -1278.90
            SOIL ZONE =         147137.02              SOIL ZONE =          -1013.10
     UNSATURATED ZONE =        4135131.23       UNSATURATED ZONE =         -22200.81
       SATURATED ZONE =       -1.2491D+07         SATURATED ZONE =           1929.97

 OVERALL BUDGET ERROR =         -17419.78           BUDGET ERROR =              0.95


  PERCENT DISCREPANCY =             -0.00    PERCENT DISCREPANCY =              0.00



1
 SUMMARY VOLUMETRIC BUDGET FOR GSFLOW 
 DATE: 09 10 1996              CUMULATIVE TIME STEP:    5824
 MODFLOW STRESS PERIOD      2     CURRENT TIME STEP:    5824     ITERATIONS:       8

 -----------------------------------------------------------------------------------

   CUMULATIVE VOLUMES               L**3   RATES FOR THIS TIME STEP           L**3/T
   ------------------                      ------------------------

                                     IN                                         IN
                                     --                                         --
        PRECIPITATION =        4.6531D+08          PRECIPITATION =                  
           STREAMFLOW =                               STREAMFLOW =                  
     GW BOUNDARY FLOW =                         GW BOUNDARY FLOW =                  


                                    OUT                                        OUT
                                    ---                                        ---
   EVAPOTRANSPIRATION =        2.8424D+08     EVAPOTRANSPIRATION =          15126.66
           STREAMFLOW =        1.8522D+08             STREAMFLOW =           6177.62
     GW BOUNDARY FLOW =        4213623.05       GW BOUNDARY FLOW =            723.76

   INFLOWS - OUTFLOWS =       -8358820.21     INFLOWS - OUTFLOWS =         -22028.04
             --------                                   --------

 TOTAL STORAGE CHANGE =       -8341432.55         STORAGE CHANGE =         -22033.72
       --------------                             --------------
         LAND SURFACE =           2510.71           LAND SURFACE =           -704.62
            SOIL ZONE =         153144.45              SOIL ZONE =          -1290.03
     UNSATURATED ZONE =        3984336.93       UNSATURATED ZONE =         -21164.24
       SATURATED ZONE =       -1.2481D+07         SATURATED ZONE =           1125.17

 OVERALL BUDGET ERROR =         -17387.66           BUDGET ERROR =              5.69


  PERCENT DISCREPANCY =             -0.00    PERCENT DISCREPANCY =              0.03



1
 SUMMARY VOLUMETRIC BUDGET FOR GSFLOW 
 DATE: 09 17 1996              CUMULATIVE TIME STEP:    5831
 MODFLOW STRESS PERIOD      2     CURRENT TIME STEP:    5831     ITERATIONS:       8

 -----------------------------------------------------------------------------------

   CUMULATIVE VOLUMES               L**3   RATES FOR THIS TIME STEP           L**3/T
   ------------------                      ------------------------

                                     IN                                         IN
                                     --                                         --
        PRECIPITATION =        4.6637D+08          PRECIPITATION =                  
           STREAMFLOW =                               STREAMFLOW =                  
     GW BOUNDARY FLOW =                         GW BOUNDARY FLOW =                  


                                    OUT                                        OUT
                                    ---                                        ---
   EVAPOTRANSPIRATION =        2.8441D+08     EVAPOTRANSPIRATION =          52774.70
           STREAMFLOW =        1.8529D+08             STREAMFLOW =          10342.02
     GW BOUNDARY FLOW =        4218690.33       GW BOUNDARY FLOW =            724.36

   INFLOWS - OUTFLOWS =       -7548382.43     INFLOWS - OUTFLOWS =         -63841.09
             --------                                   --------

 TOTAL STORAGE CHANGE =       -7531030.64         STORAGE CHANGE =         -63845.61
       --------------                             --------------
         LAND SURFACE =            882.14           LAND SURFACE =         -33826.70
            SOIL ZONE =        1102647.45              SOIL ZONE =         -10226.94
     UNSATURATED ZONE =        3840378.92       UNSATURATED ZONE =         -20083.51
       SATURATED ZONE =       -1.2475D+07         SATURATED ZONE =            291.54

 OVERALL BUDGET ERROR =         -17351.80           BUDGET ERROR =              4.52


  PERCENT DISCREPANCY =             -0.00    PERCENT DISCREPANCY =              0.01



1
 SUMMARY VOLUMETRIC BUDGET FOR GSFLOW 
 DATE: 09 24 1996              CUMULATIVE TIME STEP:    5838
 MODFLOW STRESS PERIOD      2     CURRENT TIME STEP:    5838     ITERATIONS:      13

 -----------------------------------------------------------------------------------

   CUMULATIVE VOLUMES               L**3   RATES FOR THIS TIME STEP           L**3/T
   ------------------                      ------------------------

                                     IN                                         IN
                                     --                                         --
        PRECIPITATION =        4.6637D+08          PRECIPITATION =                  
           STREAMFLOW =                               STREAMFLOW =                  
     GW BOUNDARY FLOW =                         GW BOUNDARY FLOW =                  


                                    OUT                                        OUT
                                    ---                                        ---
   EVAPOTRANSPIRATION =        2.8490D+08     EVAPOTRANSPIRATION =          56327.04
           STREAMFLOW =        1.8534D+08             STREAMFLOW =           6782.65
     GW BOUNDARY FLOW =        4223756.11       GW BOUNDARY FLOW =            723.29

   INFLOWS - OUTFLOWS =       -8099507.74     INFLOWS - OUTFLOWS =         -63832.99
             --------                                   --------

 TOTAL STORAGE CHANGE =       -8082155.51         STORAGE CHANGE =         -63827.46
       --------------                             --------------
         LAND SURFACE =                             LAND SURFACE =                  
            SOIL ZONE =         690259.83              SOIL ZONE =         -44221.40
     UNSATURATED ZONE =        3703930.81       UNSATURATED ZONE =         -19167.39
       SATURATED ZONE =       -1.2476D+07         SATURATED ZONE =           -438.66

 OVERALL BUDGET ERROR =         -17352.24           BUDGET ERROR =             -5.53


  PERCENT DISCREPANCY =             -0.00    PERCENT DISCREPANCY =             -0.01



