1
 SUMMARY VOLUMETRIC BUDGET FOR GSFLOW 
 DATE: 10 07 1980              CUMULATIVE TIME STEP:       7
 MODFLOW STRESS PERIOD      2     CURRENT TIME STEP:       7     ITERATIONS:       4

 -----------------------------------------------------------------------------------

   CUMULATIVE VOLUMES               L**3   RATES FOR THIS TIME STEP           L**3/T
   ------------------                      ------------------------

                                     IN                                         IN
                                     --                                         --
        PRECIPITATION =                            PRECIPITATION =                  
           STREAMFLOW =                               STREAMFLOW =                  
     GW BOUNDARY FLOW =                         GW BOUNDARY FLOW =                  


                                    OUT                                        OUT
                                    ---                                        ---
   EVAPOTRANSPIRATION =          56641.28     EVAPOTRANSPIRATION =           9327.13
           STREAMFLOW =          43081.79             STREAMFLOW =           6083.36
     GW BOUNDARY FLOW =           5067.91       GW BOUNDARY FLOW =            723.89

   INFLOWS - OUTFLOWS =        -104790.97     INFLOWS - OUTFLOWS =         -16134.38
             --------                                   --------

 TOTAL STORAGE CHANGE =        -104556.84         STORAGE CHANGE =         -16100.13
       --------------                             --------------
         LAND SURFACE =                             LAND SURFACE =                  
            SOIL ZONE =          53803.92              SOIL ZONE =           6359.46
     UNSATURATED ZONE =        -144965.30       UNSATURATED ZONE =         -20382.35
       SATURATED ZONE =         -13395.46         SATURATED ZONE =          -2077.23

 OVERALL BUDGET ERROR =           -234.13           BUDGET ERROR =            -34.25


  PERCENT DISCREPANCY =             -0.22    PERCENT DISCREPANCY =             -0.21



1
 SUMMARY VOLUMETRIC BUDGET FOR GSFLOW 
 DATE: 10 14 1980              CUMULATIVE TIME STEP:      14
 MODFLOW STRESS PERIOD      2     CURRENT TIME STEP:      14     ITERATIONS:       4

 -----------------------------------------------------------------------------------

   CUMULATIVE VOLUMES               L**3   RATES FOR THIS TIME STEP           L**3/T
   ------------------                      ------------------------

                                     IN                                         IN
                                     --                                         --
        PRECIPITATION =         650779.83          PRECIPITATION =         164754.40
           STREAMFLOW =                               STREAMFLOW =                  
     GW BOUNDARY FLOW =                         GW BOUNDARY FLOW =                  


                                    OUT                                        OUT
                                    ---                                        ---
   EVAPOTRANSPIRATION =         149691.92     EVAPOTRANSPIRATION =          10632.35
           STREAMFLOW =          94386.85             STREAMFLOW =           7660.92
     GW BOUNDARY FLOW =          10135.82       GW BOUNDARY FLOW =            724.16

   INFLOWS - OUTFLOWS =         396565.25     INFLOWS - OUTFLOWS =         145736.96
             --------                                   --------

 TOTAL STORAGE CHANGE =         397033.44         STORAGE CHANGE =         145772.16
       --------------                             --------------
         LAND SURFACE =         183750.31           LAND SURFACE =         130549.56
            SOIL ZONE =         526700.85              SOIL ZONE =          37327.88
     UNSATURATED ZONE =        -284674.76       UNSATURATED ZONE =         -19601.34
       SATURATED ZONE =         -28742.96         SATURATED ZONE =          -2503.93

 OVERALL BUDGET ERROR =           -468.19           BUDGET ERROR =            -35.20


  PERCENT DISCREPANCY =             -0.07    PERCENT DISCREPANCY =             -0.02



1
 SUMMARY VOLUMETRIC BUDGET FOR GSFLOW 
 DATE: 10 21 1980              CUMULATIVE TIME STEP:      21
 MODFLOW STRESS PERIOD      2     CURRENT TIME STEP:      21     ITERATIONS:       5

 -----------------------------------------------------------------------------------

   CUMULATIVE VOLUMES               L**3   RATES FOR THIS TIME STEP           L**3/T
   ------------------                      ------------------------

                                     IN                                         IN
                                     --                                         --
        PRECIPITATION =         733157.03          PRECIPITATION =                  
           STREAMFLOW =                               STREAMFLOW =                  
     GW BOUNDARY FLOW =                         GW BOUNDARY FLOW =                  


                                    OUT                                        OUT
                                    ---                                        ---
   EVAPOTRANSPIRATION =         365155.68     EVAPOTRANSPIRATION =          29604.28
           STREAMFLOW =         145204.17             STREAMFLOW =           6853.86
     GW BOUNDARY FLOW =          15203.90       GW BOUNDARY FLOW =            723.90

   INFLOWS - OUTFLOWS =         207593.28     INFLOWS - OUTFLOWS =         -37182.04
             --------                                   --------

 TOTAL STORAGE CHANGE =         208281.60         STORAGE CHANGE =         -37151.84
       --------------                             --------------
         LAND SURFACE =                             LAND SURFACE =                  
            SOIL ZONE =         675443.86              SOIL ZONE =         -15188.74
     UNSATURATED ZONE =        -418548.81       UNSATURATED ZONE =         -18774.45
       SATURATED ZONE =         -48613.45         SATURATED ZONE =          -3188.64

 OVERALL BUDGET ERROR =           -688.32           BUDGET ERROR =            -30.20


  PERCENT DISCREPANCY =             -0.09    PERCENT DISCREPANCY =             -0.08



1
 SUMMARY VOLUMETRIC BUDGET FOR GSFLOW 
 DATE: 10 28 1980              CUMULATIVE TIME STEP:      28
 MODFLOW STRESS PERIOD      2     CURRENT TIME STEP:      28     ITERATIONS:       5

 -----------------------------------------------------------------------------------

   CUMULATIVE VOLUMES               L**3   RATES FOR THIS TIME STEP           L**3/T
   ------------------                      ------------------------

                                     IN                                         IN
                                     --                                         --
        PRECIPITATION =        1070903.53          PRECIPITATION =                  
           STREAMFLOW =                               STREAMFLOW =                  
     GW BOUNDARY FLOW =                         GW BOUNDARY FLOW =                  


                                    OUT                                        OUT
                                    ---                                        ---
   EVAPOTRANSPIRATION =         540453.53     EVAPOTRANSPIRATION =          24800.27
           STREAMFLOW =         199254.44             STREAMFLOW =           7854.81
     GW BOUNDARY FLOW =          20271.39       GW BOUNDARY FLOW =            724.00

   INFLOWS - OUTFLOWS =         310924.17     INFLOWS - OUTFLOWS =         -33379.07
             --------                                   --------

 TOTAL STORAGE CHANGE =         311821.51         STORAGE CHANGE =         -33349.24
       --------------                             --------------
         LAND SURFACE =          20571.53           LAND SURFACE =         -29890.85
            SOIL ZONE =         910312.12              SOIL ZONE =          18136.24
     UNSATURATED ZONE =        -546596.84       UNSATURATED ZONE =         -17913.08
       SATURATED ZONE =         -72465.30         SATURATED ZONE =          -3681.55

 OVERALL BUDGET ERROR =           -897.34           BUDGET ERROR =            -29.84


  PERCENT DISCREPANCY =             -0.08    PERCENT DISCREPANCY =             -0.09



1
 SUMMARY VOLUMETRIC BUDGET FOR GSFLOW 
 DATE: 11 04 1980              CUMULATIVE TIME STEP:      35
 MODFLOW STRESS PERIOD      2     CURRENT TIME STEP:      35     ITERATIONS:       5

 -----------------------------------------------------------------------------------

   CUMULATIVE VOLUMES               L**3   RATES FOR THIS TIME STEP           L**3/T
   ------------------                      ------------------------

                                     IN                                         IN
                                     --                                         --
        PRECIPITATION =        1070903.53          PRECIPITATION =                  
           STREAMFLOW =                               STREAMFLOW =                  
     GW BOUNDARY FLOW =                         GW BOUNDARY FLOW =                  


                                    OUT                                        OUT
                                    ---                                        ---
   EVAPOTRANSPIRATION =         829405.49     EVAPOTRANSPIRATION =          39707.86
           STREAMFLOW =         251464.86             STREAMFLOW =           7070.20
     GW BOUNDARY FLOW =          25338.57       GW BOUNDARY FLOW =            723.80

   INFLOWS - OUTFLOWS =         -35305.40     INFLOWS - OUTFLOWS =         -47501.86
             --------                                   --------

 TOTAL STORAGE CHANGE =         -34201.63         STORAGE CHANGE =         -47472.64
       --------------                             --------------
         LAND SURFACE =                             LAND SURFACE =                  
            SOIL ZONE =         736209.17              SOIL ZONE =         -25852.54
     UNSATURATED ZONE =        -669481.96       UNSATURATED ZONE =         -17301.72
       SATURATED ZONE =        -100928.84         SATURATED ZONE =          -4318.37

 OVERALL BUDGET ERROR =          -1103.78           BUDGET ERROR =            -29.22


  PERCENT DISCREPANCY =             -0.10    PERCENT DISCREPANCY =             -0.06



1
 SUMMARY VOLUMETRIC BUDGET FOR GSFLOW 
 DATE: 11 11 1980              CUMULATIVE TIME STEP:      42
 MODFLOW STRESS PERIOD      2     CURRENT TIME STEP:      42     ITERATIONS:       5

 -----------------------------------------------------------------------------------

   CUMULATIVE VOLUMES               L**3   RATES FOR THIS TIME STEP           L**3/T
   ------------------                      ------------------------

                                     IN                                         IN
                                     --                                         --
        PRECIPITATION =        1573762.54          PRECIPITATION =         255182.19
           STREAMFLOW =                               STREAMFLOW =                  
     GW BOUNDARY FLOW =                         GW BOUNDARY FLOW =                  


                                    OUT                                        OUT
                                    ---                                        ---
   EVAPOTRANSPIRATION =        1024748.33     EVAPOTRANSPIRATION =          15844.69
           STREAMFLOW =         308006.82             STREAMFLOW =          10768.99
     GW BOUNDARY FLOW =          30405.59       GW BOUNDARY FLOW =            724.08

   INFLOWS - OUTFLOWS =         210601.80     INFLOWS - OUTFLOWS =         227844.43
             --------                                   --------

 TOTAL STORAGE CHANGE =         211907.19         STORAGE CHANGE =         227872.80
       --------------                             --------------
         LAND SURFACE =          76960.22           LAND SURFACE =          76747.38
            SOIL ZONE =        1054199.03              SOIL ZONE =         171679.18
     UNSATURATED ZONE =        -787485.99       UNSATURATED ZONE =         -16456.73
       SATURATED ZONE =        -131766.07         SATURATED ZONE =          -4097.03

 OVERALL BUDGET ERROR =          -1305.38           BUDGET ERROR =            -28.38


  PERCENT DISCREPANCY =             -0.08    PERCENT DISCREPANCY =             -0.01



1
 SUMMARY VOLUMETRIC BUDGET FOR GSFLOW 
 DATE: 11 18 1980              CUMULATIVE TIME STEP:      49
 MODFLOW STRESS PERIOD      2     CURRENT TIME STEP:      49     ITERATIONS:       5

 -----------------------------------------------------------------------------------

   CUMULATIVE VOLUMES               L**3   RATES FOR THIS TIME STEP           L**3/T
   ------------------                      ------------------------

                                     IN                                         IN
                                     --                                         --
        PRECIPITATION =        1573762.54          PRECIPITATION =                  
           STREAMFLOW =                               STREAMFLOW =                  
     GW BOUNDARY FLOW =                         GW BOUNDARY FLOW =                  


                                    OUT                                        OUT
                                    ---                                        ---
   EVAPOTRANSPIRATION =        1113793.10     EVAPOTRANSPIRATION =          14928.04
           STREAMFLOW =         371096.15             STREAMFLOW =           9345.18
     GW BOUNDARY FLOW =          35474.11       GW BOUNDARY FLOW =            724.11

   INFLOWS - OUTFLOWS =          53399.18     INFLOWS - OUTFLOWS =         -24997.32
             --------                                   --------

 TOTAL STORAGE CHANGE =          54900.07         STORAGE CHANGE =         -24969.73
       --------------                             --------------
         LAND SURFACE =           8139.47           LAND SURFACE =          -4965.50
            SOIL ZONE =        1113057.99              SOIL ZONE =            932.24
     UNSATURATED ZONE =        -900833.71       UNSATURATED ZONE =         -15952.66
       SATURATED ZONE =        -165463.68         SATURATED ZONE =          -4983.80

 OVERALL BUDGET ERROR =          -1500.89           BUDGET ERROR =            -27.59


  PERCENT DISCREPANCY =             -0.10    PERCENT DISCREPANCY =             -0.11



1
 SUMMARY VOLUMETRIC BUDGET FOR GSFLOW 
 DATE: 11 25 1980              CUMULATIVE TIME STEP:      56
 MODFLOW STRESS PERIOD      2     CURRENT TIME STEP:      56     ITERATIONS:       5

 -----------------------------------------------------------------------------------

   CUMULATIVE VOLUMES               L**3   RATES FOR THIS TIME STEP           L**3/T
   ------------------                      ------------------------

                                     IN                                         IN
                                     --                                         --
        PRECIPITATION =        1648816.13          PRECIPITATION =                  
           STREAMFLOW =                               STREAMFLOW =                  
     GW BOUNDARY FLOW =                         GW BOUNDARY FLOW =                  


                                    OUT                                        OUT
                                    ---                                        ---
   EVAPOTRANSPIRATION =        1191431.93     EVAPOTRANSPIRATION =           9313.74
           STREAMFLOW =         438496.71             STREAMFLOW =           9970.11
     GW BOUNDARY FLOW =          40543.18       GW BOUNDARY FLOW =            724.20

   INFLOWS - OUTFLOWS =         -21655.70     INFLOWS - OUTFLOWS =         -20008.05
             --------                                   --------

 TOTAL STORAGE CHANGE =         -19962.80         STORAGE CHANGE =         -19980.71
       --------------                             --------------
         LAND SURFACE =          54136.41           LAND SURFACE =          -9258.02
            SOIL ZONE =        1138377.36              SOIL ZONE =          10084.68
     UNSATURATED ZONE =       -1010072.17       UNSATURATED ZONE =         -15343.42
       SATURATED ZONE =        -202404.40         SATURATED ZONE =          -5463.96

 OVERALL BUDGET ERROR =          -1692.90           BUDGET ERROR =            -27.34


  PERCENT DISCREPANCY =             -0.10    PERCENT DISCREPANCY =             -0.14



1
 SUMMARY VOLUMETRIC BUDGET FOR GSFLOW 
 DATE: 12 02 1980              CUMULATIVE TIME STEP:      63
 MODFLOW STRESS PERIOD      2     CURRENT TIME STEP:      63     ITERATIONS:       5

 -----------------------------------------------------------------------------------

   CUMULATIVE VOLUMES               L**3   RATES FOR THIS TIME STEP           L**3/T
   ------------------                      ------------------------

                                     IN                                         IN
                                     --                                         --
        PRECIPITATION =        2076621.55          PRECIPITATION =                  
           STREAMFLOW =                               STREAMFLOW =                  
     GW BOUNDARY FLOW =                         GW BOUNDARY FLOW =                  


                                    OUT                                        OUT
                                    ---                                        ---
   EVAPOTRANSPIRATION =        1379031.81     EVAPOTRANSPIRATION =          34142.10
           STREAMFLOW =         523021.90             STREAMFLOW =          15143.66
     GW BOUNDARY FLOW =          45614.32       GW BOUNDARY FLOW =            724.84

   INFLOWS - OUTFLOWS =         128953.52     INFLOWS - OUTFLOWS =         -50010.60
             --------                                   --------

 TOTAL STORAGE CHANGE =         130835.02         STORAGE CHANGE =         -49983.59
       --------------                             --------------
         LAND SURFACE =         157031.20           LAND SURFACE =         -76789.76
            SOIL ZONE =        1324068.83              SOIL ZONE =          44259.57
     UNSATURATED ZONE =       -1110995.72       UNSATURATED ZONE =         -12784.89
       SATURATED ZONE =        -239269.29         SATURATED ZONE =          -4668.50

 OVERALL BUDGET ERROR =          -1881.50           BUDGET ERROR =            -27.00


  PERCENT DISCREPANCY =             -0.09    PERCENT DISCREPANCY =             -0.05



1
 SUMMARY VOLUMETRIC BUDGET FOR GSFLOW 
 DATE: 12 09 1980              CUMULATIVE TIME STEP:      70
 MODFLOW STRESS PERIOD      2     CURRENT TIME STEP:      70     ITERATIONS:       5

 -----------------------------------------------------------------------------------

   CUMULATIVE VOLUMES               L**3   RATES FOR THIS TIME STEP           L**3/T
   ------------------                      ------------------------

                                     IN                                         IN
                                     --                                         --
        PRECIPITATION =        4284363.63          PRECIPITATION =                  
           STREAMFLOW =                               STREAMFLOW =                  
     GW BOUNDARY FLOW =                         GW BOUNDARY FLOW =                  


                                    OUT                                        OUT
                                    ---                                        ---
   EVAPOTRANSPIRATION =        1404670.58     EVAPOTRANSPIRATION =           3258.35
           STREAMFLOW =         621443.55             STREAMFLOW =          14321.58
     GW BOUNDARY FLOW =          50688.88       GW BOUNDARY FLOW =            725.02

   INFLOWS - OUTFLOWS =        2207560.62     INFLOWS - OUTFLOWS =         -18304.96
             --------                                   --------

 TOTAL STORAGE CHANGE =        2209627.07         STORAGE CHANGE =         -18278.65
       --------------                             --------------
         LAND SURFACE =        2337504.39           LAND SURFACE =          -3258.35
            SOIL ZONE =        1360003.10              SOIL ZONE =           5242.76
     UNSATURATED ZONE =       -1208407.76       UNSATURATED ZONE =         -14158.00
       SATURATED ZONE =        -279472.67         SATURATED ZONE =          -6105.06

 OVERALL BUDGET ERROR =          -2066.44           BUDGET ERROR =            -26.31


  PERCENT DISCREPANCY =             -0.05    PERCENT DISCREPANCY =             -0.14



1
 SUMMARY VOLUMETRIC BUDGET FOR GSFLOW 
 DATE: 12 16 1980              CUMULATIVE TIME STEP:      77
 MODFLOW STRESS PERIOD      2     CURRENT TIME STEP:      77     ITERATIONS:       5

 -----------------------------------------------------------------------------------

   CUMULATIVE VOLUMES               L**3   RATES FOR THIS TIME STEP           L**3/T
   ------------------                      ------------------------

                                     IN                                         IN
                                     --                                         --
        PRECIPITATION =        4284363.63          PRECIPITATION =                  
           STREAMFLOW =                               STREAMFLOW =                  
     GW BOUNDARY FLOW =                         GW BOUNDARY FLOW =                  


                                    OUT                                        OUT
                                    ---                                        ---
   EVAPOTRANSPIRATION =        1549302.12     EVAPOTRANSPIRATION =          34482.61
           STREAMFLOW =         740404.68             STREAMFLOW =          24720.79
     GW BOUNDARY FLOW =          55765.93       GW BOUNDARY FLOW =            725.89

   INFLOWS - OUTFLOWS =        1938890.90     INFLOWS - OUTFLOWS =         -59929.29
             --------                                   --------

 TOTAL STORAGE CHANGE =        1941140.49         STORAGE CHANGE =         -59902.64
       --------------                             --------------
         LAND SURFACE =        2017009.25           LAND SURFACE =        -133032.47
            SOIL ZONE =        1542329.99              SOIL ZONE =          86585.68
     UNSATURATED ZONE =       -1297591.42       UNSATURATED ZONE =          -8879.31
       SATURATED ZONE =        -320607.34         SATURATED ZONE =          -4576.54

 OVERALL BUDGET ERROR =          -2249.59           BUDGET ERROR =            -26.65


  PERCENT DISCREPANCY =             -0.05    PERCENT DISCREPANCY =             -0.04



1
 SUMMARY VOLUMETRIC BUDGET FOR GSFLOW 
 DATE: 12 23 1980              CUMULATIVE TIME STEP:      84
 MODFLOW STRESS PERIOD      2     CURRENT TIME STEP:      84     ITERATIONS:       6

 -----------------------------------------------------------------------------------

   CUMULATIVE VOLUMES               L**3   RATES FOR THIS TIME STEP           L**3/T
   ------------------                      ------------------------

                                     IN                                         IN
                                     --                                         --
        PRECIPITATION =        4516757.54          PRECIPITATION =                  
           STREAMFLOW =                               STREAMFLOW =                  
     GW BOUNDARY FLOW =                         GW BOUNDARY FLOW =                  


                                    OUT                                        OUT
                                    ---                                        ---
   EVAPOTRANSPIRATION =        1757539.94     EVAPOTRANSPIRATION =          35848.50
           STREAMFLOW =         968907.27             STREAMFLOW =          30745.21
     GW BOUNDARY FLOW =          60858.21       GW BOUNDARY FLOW =            728.11

   INFLOWS - OUTFLOWS =        1729452.12     INFLOWS - OUTFLOWS =         -67321.82
             --------                                   --------

 TOTAL STORAGE CHANGE =        1731850.26         STORAGE CHANGE =         -67304.28
       --------------                             --------------
         LAND SURFACE =        1391476.45           LAND SURFACE =         -50626.27
            SOIL ZONE =        2024540.65              SOIL ZONE =          -7022.00
     UNSATURATED ZONE =       -1335509.73       UNSATURATED ZONE =          -5085.42
       SATURATED ZONE =        -348657.11         SATURATED ZONE =          -4570.59

 OVERALL BUDGET ERROR =          -2398.15           BUDGET ERROR =            -17.55


  PERCENT DISCREPANCY =             -0.05    PERCENT DISCREPANCY =             -0.03



1
 SUMMARY VOLUMETRIC BUDGET FOR GSFLOW 
 DATE: 12 30 1980              CUMULATIVE TIME STEP:      91
 MODFLOW STRESS PERIOD      2     CURRENT TIME STEP:      91     ITERATIONS:       7

 -----------------------------------------------------------------------------------

   CUMULATIVE VOLUMES               L**3   RATES FOR THIS TIME STEP           L**3/T
   ------------------                      ------------------------

                                     IN                                         IN
                                     --                                         --
        PRECIPITATION =        4516757.54          PRECIPITATION =                  
           STREAMFLOW =                               STREAMFLOW =                  
     GW BOUNDARY FLOW =                         GW BOUNDARY FLOW =                  


                                    OUT                                        OUT
                                    ---                                        ---
   EVAPOTRANSPIRATION =        2125262.19     EVAPOTRANSPIRATION =          47015.27
           STREAMFLOW =        1216797.60             STREAMFLOW =          27386.67
     GW BOUNDARY FLOW =          65959.35       GW BOUNDARY FLOW =            728.63

   INFLOWS - OUTFLOWS =        1108738.40     INFLOWS - OUTFLOWS =         -75130.58
             --------                                   --------

 TOTAL STORAGE CHANGE =        1111232.97         STORAGE CHANGE =         -75119.37
       --------------                             --------------
         LAND SURFACE =         579625.21           LAND SURFACE =         -42433.18
            SOIL ZONE =        2243177.18              SOIL ZONE =         -24985.93
     UNSATURATED ZONE =       -1339882.15       UNSATURATED ZONE =          -4007.25
       SATURATED ZONE =        -371687.27         SATURATED ZONE =          -3693.01

 OVERALL BUDGET ERROR =          -2494.57           BUDGET ERROR =            -11.21


  PERCENT DISCREPANCY =             -0.06    PERCENT DISCREPANCY =             -0.01



1
 SUMMARY VOLUMETRIC BUDGET FOR GSFLOW 
 DATE: 01 06 1981              CUMULATIVE TIME STEP:      98
 MODFLOW STRESS PERIOD      2     CURRENT TIME STEP:      98     ITERATIONS:       6

 -----------------------------------------------------------------------------------

   CUMULATIVE VOLUMES               L**3   RATES FOR THIS TIME STEP           L**3/T
   ------------------                      ------------------------

                                     IN                                         IN
                                     --                                         --
        PRECIPITATION =        5004445.43          PRECIPITATION =                  
           STREAMFLOW =                               STREAMFLOW =                  
     GW BOUNDARY FLOW =                         GW BOUNDARY FLOW =                  


                                    OUT                                        OUT
                                    ---                                        ---
   EVAPOTRANSPIRATION =        2342949.36     EVAPOTRANSPIRATION =          18975.60
           STREAMFLOW =        1365339.41             STREAMFLOW =          20090.87
     GW BOUNDARY FLOW =          71052.45       GW BOUNDARY FLOW =            726.99

   INFLOWS - OUTFLOWS =        1225104.22     INFLOWS - OUTFLOWS =         -39793.46
             --------                                   --------

 TOTAL STORAGE CHANGE =        1227688.31         STORAGE CHANGE =         -39779.82
       --------------                             --------------
         LAND SURFACE =         840075.39           LAND SURFACE =         -25549.72
            SOIL ZONE =        2208671.04              SOIL ZONE =           3478.01
     UNSATURATED ZONE =       -1410521.75       UNSATURATED ZONE =         -11549.20
       SATURATED ZONE =        -410536.37         SATURATED ZONE =          -6158.90

 OVERALL BUDGET ERROR =          -2584.09           BUDGET ERROR =            -13.65


  PERCENT DISCREPANCY =             -0.05    PERCENT DISCREPANCY =             -0.03



1
 SUMMARY VOLUMETRIC BUDGET FOR GSFLOW 
 DATE: 01 13 1981              CUMULATIVE TIME STEP:     105
 MODFLOW STRESS PERIOD      2     CURRENT TIME STEP:     105     ITERATIONS:       5

 -----------------------------------------------------------------------------------

   CUMULATIVE VOLUMES               L**3   RATES FOR THIS TIME STEP           L**3/T
   ------------------                      ------------------------

                                     IN                                         IN
                                     --                                         --
        PRECIPITATION =        5004445.43          PRECIPITATION =                  
           STREAMFLOW =                               STREAMFLOW =                  
     GW BOUNDARY FLOW =                         GW BOUNDARY FLOW =                  


                                    OUT                                        OUT
                                    ---                                        ---
   EVAPOTRANSPIRATION =        2544695.47     EVAPOTRANSPIRATION =          41907.78
           STREAMFLOW =        1509829.98             STREAMFLOW =          20178.52
     GW BOUNDARY FLOW =          76139.53       GW BOUNDARY FLOW =            726.56

   INFLOWS - OUTFLOWS =         873780.46     INFLOWS - OUTFLOWS =         -62812.85
             --------                                   --------

 TOTAL STORAGE CHANGE =         876478.28         STORAGE CHANGE =         -62792.86
       --------------                             --------------
         LAND SURFACE =         624161.64           LAND SURFACE =         -38673.92
            SOIL ZONE =        2188430.54              SOIL ZONE =          -8330.04
     UNSATURATED ZONE =       -1480562.61       UNSATURATED ZONE =          -9166.91
       SATURATED ZONE =        -455551.29         SATURATED ZONE =          -6622.00

 OVERALL BUDGET ERROR =          -2697.82           BUDGET ERROR =            -19.99


  PERCENT DISCREPANCY =             -0.05    PERCENT DISCREPANCY =             -0.03



1
 SUMMARY VOLUMETRIC BUDGET FOR GSFLOW 
 DATE: 01 20 1981              CUMULATIVE TIME STEP:     112
 MODFLOW STRESS PERIOD      2     CURRENT TIME STEP:     112     ITERATIONS:       5

 -----------------------------------------------------------------------------------

   CUMULATIVE VOLUMES               L**3   RATES FOR THIS TIME STEP           L**3/T
   ------------------                      ------------------------

                                     IN                                         IN
                                     --                                         --
        PRECIPITATION =        5170466.84          PRECIPITATION =          41505.35
           STREAMFLOW =                               STREAMFLOW =                  
     GW BOUNDARY FLOW =                         GW BOUNDARY FLOW =                  


                                    OUT                                        OUT
                                    ---                                        ---
   EVAPOTRANSPIRATION =        2809607.81     EVAPOTRANSPIRATION =          30808.35
           STREAMFLOW =        1651383.91             STREAMFLOW =          19896.94
     GW BOUNDARY FLOW =          81224.57       GW BOUNDARY FLOW =            726.36

   INFLOWS - OUTFLOWS =         628250.54     INFLOWS - OUTFLOWS =          -9926.30
             --------                                   --------

 TOTAL STORAGE CHANGE =         631088.24         STORAGE CHANGE =          -9906.30
       --------------                             --------------
         LAND SURFACE =         464145.88           LAND SURFACE =           8501.89
            SOIL ZONE =        2184596.74              SOIL ZONE =          -8761.83
     UNSATURATED ZONE =       -1514882.99       UNSATURATED ZONE =          -2750.44
       SATURATED ZONE =        -502771.39         SATURATED ZONE =          -6895.92

 OVERALL BUDGET ERROR =          -2837.70           BUDGET ERROR =            -20.00


  PERCENT DISCREPANCY =             -0.05    PERCENT DISCREPANCY =             -0.04



1
 SUMMARY VOLUMETRIC BUDGET FOR GSFLOW 
 DATE: 01 27 1981              CUMULATIVE TIME STEP:     119
 MODFLOW STRESS PERIOD      2     CURRENT TIME STEP:     119     ITERATIONS:       5

 -----------------------------------------------------------------------------------

   CUMULATIVE VOLUMES               L**3   RATES FOR THIS TIME STEP           L**3/T
   ------------------                      ------------------------

                                     IN                                         IN
                                     --                                         --
        PRECIPITATION =        8646540.08          PRECIPITATION =        2936503.63
           STREAMFLOW =                               STREAMFLOW =                  
     GW BOUNDARY FLOW =                         GW BOUNDARY FLOW =                  


                                    OUT                                        OUT
                                    ---                                        ---
   EVAPOTRANSPIRATION =        3032562.11     EVAPOTRANSPIRATION =          12639.57
           STREAMFLOW =        1794383.42             STREAMFLOW =          18504.89
     GW BOUNDARY FLOW =          86308.69       GW BOUNDARY FLOW =            726.07

   INFLOWS - OUTFLOWS =        3733285.86     INFLOWS - OUTFLOWS =        2904633.10
             --------                                   --------

 TOTAL STORAGE CHANGE =        3736213.17         STORAGE CHANGE =        2904649.98
       --------------                             --------------
         LAND SURFACE =        3592460.11           LAND SURFACE =        2923864.12
            SOIL ZONE =        2205952.53              SOIL ZONE =          -6118.23
     UNSATURATED ZONE =       -1512012.89       UNSATURATED ZONE =          -5864.30
       SATURATED ZONE =        -550186.58         SATURATED ZONE =          -7231.62

 OVERALL BUDGET ERROR =          -2927.31           BUDGET ERROR =            -16.88


  PERCENT DISCREPANCY =             -0.03    PERCENT DISCREPANCY =             -0.00



1
 SUMMARY VOLUMETRIC BUDGET FOR GSFLOW 
 DATE: 02 03 1981              CUMULATIVE TIME STEP:     126
 MODFLOW STRESS PERIOD      2     CURRENT TIME STEP:     126     ITERATIONS:       6

 -----------------------------------------------------------------------------------

   CUMULATIVE VOLUMES               L**3   RATES FOR THIS TIME STEP           L**3/T
   ------------------                      ------------------------

                                     IN                                         IN
                                     --                                         --
        PRECIPITATION =        1.1739D+07          PRECIPITATION =                  
           STREAMFLOW =                               STREAMFLOW =                  
     GW BOUNDARY FLOW =                         GW BOUNDARY FLOW =                  


                                    OUT                                        OUT
                                    ---                                        ---
   EVAPOTRANSPIRATION =        3067753.47     EVAPOTRANSPIRATION =           7106.06
           STREAMFLOW =        1920562.02             STREAMFLOW =          17940.57
     GW BOUNDARY FLOW =          91390.03       GW BOUNDARY FLOW =            725.84

   INFLOWS - OUTFLOWS =        6658983.25     INFLOWS - OUTFLOWS =         -25772.48
             --------                                   --------

 TOTAL STORAGE CHANGE =        6662000.67         STORAGE CHANGE =         -25760.90
       --------------                             --------------
         LAND SURFACE =        6649417.45           LAND SURFACE =          -7106.06
            SOIL ZONE =        2198469.09              SOIL ZONE =            570.31
     UNSATURATED ZONE =       -1581870.42       UNSATURATED ZONE =         -11188.01
       SATURATED ZONE =        -604015.45         SATURATED ZONE =          -8037.15

 OVERALL BUDGET ERROR =          -3017.42           BUDGET ERROR =            -11.57


  PERCENT DISCREPANCY =             -0.03    PERCENT DISCREPANCY =             -0.04



1
 SUMMARY VOLUMETRIC BUDGET FOR GSFLOW 
 DATE: 02 10 1981              CUMULATIVE TIME STEP:     133
 MODFLOW STRESS PERIOD      2     CURRENT TIME STEP:     133     ITERATIONS:       5

 -----------------------------------------------------------------------------------

   CUMULATIVE VOLUMES               L**3   RATES FOR THIS TIME STEP           L**3/T
   ------------------                      ------------------------

                                     IN                                         IN
                                     --                                         --
        PRECIPITATION =        1.1838D+07          PRECIPITATION =                  
           STREAMFLOW =                               STREAMFLOW =                  
     GW BOUNDARY FLOW =                         GW BOUNDARY FLOW =                  


                                    OUT                                        OUT
                                    ---                                        ---
   EVAPOTRANSPIRATION =        3188856.99     EVAPOTRANSPIRATION =          32343.27
           STREAMFLOW =        2046392.27             STREAMFLOW =          17998.32
     GW BOUNDARY FLOW =          96470.97       GW BOUNDARY FLOW =            725.84

   INFLOWS - OUTFLOWS =        6506533.05     INFLOWS - OUTFLOWS =         -51067.44
             --------                                   --------

 TOTAL STORAGE CHANGE =        6509667.29         STORAGE CHANGE =         -51048.42
       --------------                             --------------
         LAND SURFACE =        6627878.44           LAND SURFACE =         -32343.27
            SOIL ZONE =        2202688.82              SOIL ZONE =            509.45
     UNSATURATED ZONE =       -1657831.28       UNSATURATED ZONE =         -10459.26
       SATURATED ZONE =        -663068.69         SATURATED ZONE =          -8755.35

 OVERALL BUDGET ERROR =          -3134.24           BUDGET ERROR =            -19.01


  PERCENT DISCREPANCY =             -0.03    PERCENT DISCREPANCY =             -0.04



1
 SUMMARY VOLUMETRIC BUDGET FOR GSFLOW 
 DATE: 02 17 1981              CUMULATIVE TIME STEP:     140
 MODFLOW STRESS PERIOD      2     CURRENT TIME STEP:     140     ITERATIONS:      10

 -----------------------------------------------------------------------------------

   CUMULATIVE VOLUMES               L**3   RATES FOR THIS TIME STEP           L**3/T
   ------------------                      ------------------------

                                     IN                                         IN
                                     --                                         --
        PRECIPITATION =        1.2765D+07          PRECIPITATION =          68929.28
           STREAMFLOW =                               STREAMFLOW =                  
     GW BOUNDARY FLOW =                         GW BOUNDARY FLOW =                  


                                    OUT                                        OUT
                                    ---                                        ---
   EVAPOTRANSPIRATION =        3514623.87     EVAPOTRANSPIRATION =          59831.41
           STREAMFLOW =        2558241.18             STREAMFLOW =         119630.34
     GW BOUNDARY FLOW =         101578.75       GW BOUNDARY FLOW =            734.14

   INFLOWS - OUTFLOWS =        6590525.31     INFLOWS - OUTFLOWS =        -111266.61
             --------                                   --------

 TOTAL STORAGE CHANGE =        6593776.33         STORAGE CHANGE =        -111253.79
       --------------                             --------------
         LAND SURFACE =        5733342.74           LAND SURFACE =        -263707.47
            SOIL ZONE =        2969654.73              SOIL ZONE =          74038.60
     UNSATURATED ZONE =       -1425785.63       UNSATURATED ZONE =          76547.21
       SATURATED ZONE =        -683435.51         SATURATED ZONE =           1867.87

 OVERALL BUDGET ERROR =          -3251.02           BUDGET ERROR =            -12.82


  PERCENT DISCREPANCY =             -0.03    PERCENT DISCREPANCY =             -0.01



1
 SUMMARY VOLUMETRIC BUDGET FOR GSFLOW 
 DATE: 02 24 1981              CUMULATIVE TIME STEP:     147
 MODFLOW STRESS PERIOD      2     CURRENT TIME STEP:     147     ITERATIONS:       9

 -----------------------------------------------------------------------------------

   CUMULATIVE VOLUMES               L**3   RATES FOR THIS TIME STEP           L**3/T
   ------------------                      ------------------------

                                     IN                                         IN
                                     --                                         --
        PRECIPITATION =        1.3179D+07          PRECIPITATION =         344646.37
           STREAMFLOW =                               STREAMFLOW =                  
     GW BOUNDARY FLOW =                         GW BOUNDARY FLOW =                  


                                    OUT                                        OUT
                                    ---                                        ---
   EVAPOTRANSPIRATION =        3846999.97     EVAPOTRANSPIRATION =          18156.56
           STREAMFLOW =        3107652.75             STREAMFLOW =          49935.04
     GW BOUNDARY FLOW =         106712.54       GW BOUNDARY FLOW =            732.00

   INFLOWS - OUTFLOWS =        6117179.49     INFLOWS - OUTFLOWS =         275822.77
             --------                                   --------

 TOTAL STORAGE CHANGE =        6120461.84         STORAGE CHANGE =         275822.49
       --------------                             --------------
         LAND SURFACE =        5134001.56           LAND SURFACE =         302140.01
            SOIL ZONE =        2716722.98              SOIL ZONE =         -55996.96
     UNSATURATED ZONE =       -1069107.08       UNSATURATED ZONE =          27444.82
       SATURATED ZONE =        -661155.62         SATURATED ZONE =           2234.62

 OVERALL BUDGET ERROR =          -3282.35           BUDGET ERROR =              0.28


  PERCENT DISCREPANCY =             -0.02    PERCENT DISCREPANCY =              0.00



1
 SUMMARY VOLUMETRIC BUDGET FOR GSFLOW 
 DATE: 03 03 1981              CUMULATIVE TIME STEP:     154
 MODFLOW STRESS PERIOD      2     CURRENT TIME STEP:     154     ITERATIONS:       8

 -----------------------------------------------------------------------------------

   CUMULATIVE VOLUMES               L**3   RATES FOR THIS TIME STEP           L**3/T
   ------------------                      ------------------------

                                     IN                                         IN
                                     --                                         --
        PRECIPITATION =        1.3447D+07          PRECIPITATION =                  
           STREAMFLOW =                               STREAMFLOW =                  
     GW BOUNDARY FLOW =                         GW BOUNDARY FLOW =                  


                                    OUT                                        OUT
                                    ---                                        ---
   EVAPOTRANSPIRATION =        3993785.93     EVAPOTRANSPIRATION =          40644.00
           STREAMFLOW =        3327950.23             STREAMFLOW =          27092.39
     GW BOUNDARY FLOW =         111819.92       GW BOUNDARY FLOW =            728.41

   INFLOWS - OUTFLOWS =        6013046.96     INFLOWS - OUTFLOWS =         -68464.79
             --------                                   --------

 TOTAL STORAGE CHANGE =        6016288.42         STORAGE CHANGE =         -68469.55
       --------------                             --------------
         LAND SURFACE =        5236571.47           LAND SURFACE =         -57449.18
            SOIL ZONE =        2510544.53              SOIL ZONE =            441.09
     UNSATURATED ZONE =       -1064444.39       UNSATURATED ZONE =          -9347.26
       SATURATED ZONE =        -666383.19         SATURATED ZONE =          -2114.20

 OVERALL BUDGET ERROR =          -3241.46           BUDGET ERROR =              4.76


  PERCENT DISCREPANCY =             -0.02    PERCENT DISCREPANCY =              0.01



1
 SUMMARY VOLUMETRIC BUDGET FOR GSFLOW 
 DATE: 03 10 1981              CUMULATIVE TIME STEP:     161
 MODFLOW STRESS PERIOD      2     CURRENT TIME STEP:     161     ITERATIONS:       7

 -----------------------------------------------------------------------------------

   CUMULATIVE VOLUMES               L**3   RATES FOR THIS TIME STEP           L**3/T
   ------------------                      ------------------------

                                     IN                                         IN
                                     --                                         --
        PRECIPITATION =        1.3493D+07          PRECIPITATION =                  
           STREAMFLOW =                               STREAMFLOW =                  
     GW BOUNDARY FLOW =                         GW BOUNDARY FLOW =                  


                                    OUT                                        OUT
                                    ---                                        ---
   EVAPOTRANSPIRATION =        4305646.06     EVAPOTRANSPIRATION =          67192.35
           STREAMFLOW =        3548040.89             STREAMFLOW =          39968.09
     GW BOUNDARY FLOW =         116917.52       GW BOUNDARY FLOW =            728.92

   INFLOWS - OUTFLOWS =        5522336.67     INFLOWS - OUTFLOWS =        -107889.37
             --------                                   --------

 TOTAL STORAGE CHANGE =        5525568.67         STORAGE CHANGE =        -107889.73
       --------------                             --------------
         LAND SURFACE =        4665498.38           LAND SURFACE =        -147188.93
            SOIL ZONE =        2599220.66              SOIL ZONE =          24870.80
     UNSATURATED ZONE =       -1056475.20       UNSATURATED ZONE =          15970.97
       SATURATED ZONE =        -682675.17         SATURATED ZONE =          -1542.57

 OVERALL BUDGET ERROR =          -3232.00           BUDGET ERROR =              0.37


  PERCENT DISCREPANCY =             -0.02    PERCENT DISCREPANCY =              0.00



1
 SUMMARY VOLUMETRIC BUDGET FOR GSFLOW 
 DATE: 03 17 1981              CUMULATIVE TIME STEP:     168
 MODFLOW STRESS PERIOD      2     CURRENT TIME STEP:     168     ITERATIONS:       6

 -----------------------------------------------------------------------------------

   CUMULATIVE VOLUMES               L**3   RATES FOR THIS TIME STEP           L**3/T
   ------------------                      ------------------------

                                     IN                                         IN
                                     --                                         --
        PRECIPITATION =        1.3744D+07          PRECIPITATION =                  
           STREAMFLOW =                               STREAMFLOW =                  
     GW BOUNDARY FLOW =                         GW BOUNDARY FLOW =                  


                                    OUT                                        OUT
                                    ---                                        ---
   EVAPOTRANSPIRATION =        4622318.74     EVAPOTRANSPIRATION =          33262.65
           STREAMFLOW =        3763843.29             STREAMFLOW =          23618.53
     GW BOUNDARY FLOW =         122016.97       GW BOUNDARY FLOW =            727.81

   INFLOWS - OUTFLOWS =        5236311.89     INFLOWS - OUTFLOWS =         -57608.99
             --------                                   --------

 TOTAL STORAGE CHANGE =        5239529.40         STORAGE CHANGE =         -57606.44
       --------------                             --------------
         LAND SURFACE =        4532338.76           LAND SURFACE =         -32994.50
            SOIL ZONE =        2463047.89              SOIL ZONE =          -5079.46
     UNSATURATED ZONE =       -1050128.41       UNSATURATED ZONE =         -14401.33
       SATURATED ZONE =        -705728.84         SATURATED ZONE =          -5131.15

 OVERALL BUDGET ERROR =          -3217.51           BUDGET ERROR =             -2.55


  PERCENT DISCREPANCY =             -0.02    PERCENT DISCREPANCY =             -0.00



1
 SUMMARY VOLUMETRIC BUDGET FOR GSFLOW 
 DATE: 03 24 1981              CUMULATIVE TIME STEP:     175
 MODFLOW STRESS PERIOD      2     CURRENT TIME STEP:     175     ITERATIONS:       6

 -----------------------------------------------------------------------------------

   CUMULATIVE VOLUMES               L**3   RATES FOR THIS TIME STEP           L**3/T
   ------------------                      ------------------------

                                     IN                                         IN
                                     --                                         --
        PRECIPITATION =        1.4367D+07          PRECIPITATION =                  
           STREAMFLOW =                               STREAMFLOW =                  
     GW BOUNDARY FLOW =                         GW BOUNDARY FLOW =                  


                                    OUT                                        OUT
                                    ---                                        ---
   EVAPOTRANSPIRATION =        4942142.02     EVAPOTRANSPIRATION =          80764.17
           STREAMFLOW =        3928543.24             STREAMFLOW =          25001.56
     GW BOUNDARY FLOW =         127107.87       GW BOUNDARY FLOW =            727.16

   INFLOWS - OUTFLOWS =        5368952.39     INFLOWS - OUTFLOWS =        -106492.89
             --------                                   --------

 TOTAL STORAGE CHANGE =        5372200.15         STORAGE CHANGE =        -106489.91
       --------------                             --------------
         LAND SURFACE =        4882235.57           LAND SURFACE =         -56598.13
            SOIL ZONE =        2364347.64              SOIL ZONE =         -38127.85
     UNSATURATED ZONE =       -1127781.94       UNSATURATED ZONE =          -5789.71
       SATURATED ZONE =        -746601.10         SATURATED ZONE =          -5974.21

 OVERALL BUDGET ERROR =          -3247.76           BUDGET ERROR =             -2.98


  PERCENT DISCREPANCY =             -0.02    PERCENT DISCREPANCY =             -0.00



1
 SUMMARY VOLUMETRIC BUDGET FOR GSFLOW 
 DATE: 03 31 1981              CUMULATIVE TIME STEP:     182
 MODFLOW STRESS PERIOD      2     CURRENT TIME STEP:     182     ITERATIONS:       8

 -----------------------------------------------------------------------------------

   CUMULATIVE VOLUMES               L**3   RATES FOR THIS TIME STEP           L**3/T
   ------------------                      ------------------------

                                     IN                                         IN
                                     --                                         --
        PRECIPITATION =        1.5777D+07          PRECIPITATION =                  
           STREAMFLOW =                               STREAMFLOW =                  
     GW BOUNDARY FLOW =                         GW BOUNDARY FLOW =                  


                                    OUT                                        OUT
                                    ---                                        ---
   EVAPOTRANSPIRATION =        5330315.32     EVAPOTRANSPIRATION =          42424.06
           STREAMFLOW =        4373293.88             STREAMFLOW =          33606.04
     GW BOUNDARY FLOW =         132223.35       GW BOUNDARY FLOW =            729.66

   INFLOWS - OUTFLOWS =        5940915.44     INFLOWS - OUTFLOWS =         -76759.75
             --------                                   --------

 TOTAL STORAGE CHANGE =        5944159.80         STORAGE CHANGE =         -76765.58
       --------------                             --------------
         LAND SURFACE =        5101875.85           LAND SURFACE =         -42987.31
            SOIL ZONE =        2532005.26              SOIL ZONE =         -32532.98
     UNSATURATED ZONE =        -936665.82       UNSATURATED ZONE =           1474.30
       SATURATED ZONE =        -753055.48         SATURATED ZONE =          -2719.58

 OVERALL BUDGET ERROR =          -3244.36           BUDGET ERROR =              5.82


  PERCENT DISCREPANCY =             -0.02    PERCENT DISCREPANCY =              0.01



1
 SUMMARY VOLUMETRIC BUDGET FOR GSFLOW 
 DATE: 04 07 1981              CUMULATIVE TIME STEP:     189
 MODFLOW STRESS PERIOD      2     CURRENT TIME STEP:     189     ITERATIONS:       7

 -----------------------------------------------------------------------------------

   CUMULATIVE VOLUMES               L**3   RATES FOR THIS TIME STEP           L**3/T
   ------------------                      ------------------------

                                     IN                                         IN
                                     --                                         --
        PRECIPITATION =        1.6121D+07          PRECIPITATION =                  
           STREAMFLOW =                               STREAMFLOW =                  
     GW BOUNDARY FLOW =                         GW BOUNDARY FLOW =                  


                                    OUT                                        OUT
                                    ---                                        ---
   EVAPOTRANSPIRATION =        5924764.12     EVAPOTRANSPIRATION =          97287.85
           STREAMFLOW =        4666409.08             STREAMFLOW =          41930.93
     GW BOUNDARY FLOW =         137331.72       GW BOUNDARY FLOW =            730.20

   INFLOWS - OUTFLOWS =        5392962.68     INFLOWS - OUTFLOWS =        -139948.98
             --------                                   --------

 TOTAL STORAGE CHANGE =        5396191.65         STORAGE CHANGE =        -139952.28
       --------------                             --------------
         LAND SURFACE =        4536824.57           LAND SURFACE =        -138203.79
            SOIL ZONE =        2493881.78              SOIL ZONE =         -11804.18
     UNSATURATED ZONE =        -870249.92       UNSATURATED ZONE =          11297.22
       SATURATED ZONE =        -764264.78         SATURATED ZONE =          -1241.53

 OVERALL BUDGET ERROR =          -3228.97           BUDGET ERROR =              3.30


  PERCENT DISCREPANCY =             -0.02    PERCENT DISCREPANCY =              0.00



1
 SUMMARY VOLUMETRIC BUDGET FOR GSFLOW 
 DATE: 04 14 1981              CUMULATIVE TIME STEP:     196
 MODFLOW STRESS PERIOD      2     CURRENT TIME STEP:     196     ITERATIONS:       9

 -----------------------------------------------------------------------------------

   CUMULATIVE VOLUMES               L**3   RATES FOR THIS TIME STEP           L**3/T
   ------------------                      ------------------------

                                     IN                                         IN
                                     --                                         --
        PRECIPITATION =        1.6121D+07          PRECIPITATION =                  
           STREAMFLOW =                               STREAMFLOW =                  
     GW BOUNDARY FLOW =                         GW BOUNDARY FLOW =                  


                                    OUT                                        OUT
                                    ---                                        ---
   EVAPOTRANSPIRATION =        6788193.28     EVAPOTRANSPIRATION =         187136.52
           STREAMFLOW =        5001740.22             STREAMFLOW =          60452.72
     GW BOUNDARY FLOW =         142444.09       GW BOUNDARY FLOW =            730.76

   INFLOWS - OUTFLOWS =        4189090.02     INFLOWS - OUTFLOWS =        -248319.99
             --------                                   --------

 TOTAL STORAGE CHANGE =        4192311.11         STORAGE CHANGE =        -248318.55
       --------------                             --------------
         LAND SURFACE =        3249108.93           LAND SURFACE =        -276414.16
            SOIL ZONE =        2465915.45              SOIL ZONE =           -595.12
     UNSATURATED ZONE =        -755372.89       UNSATURATED ZONE =          27310.73
       SATURATED ZONE =        -767340.38         SATURATED ZONE =           1380.00

 OVERALL BUDGET ERROR =          -3221.09           BUDGET ERROR =             -1.44


  PERCENT DISCREPANCY =             -0.02    PERCENT DISCREPANCY =             -0.00



1
 SUMMARY VOLUMETRIC BUDGET FOR GSFLOW 
 DATE: 04 21 1981              CUMULATIVE TIME STEP:     203
 MODFLOW STRESS PERIOD      2     CURRENT TIME STEP:     203     ITERATIONS:       9

 -----------------------------------------------------------------------------------

   CUMULATIVE VOLUMES               L**3   RATES FOR THIS TIME STEP           L**3/T
   ------------------                      ------------------------

                                     IN                                         IN
                                     --                                         --
        PRECIPITATION =        1.6310D+07          PRECIPITATION =                  
           STREAMFLOW =                               STREAMFLOW =                  
     GW BOUNDARY FLOW =                         GW BOUNDARY FLOW =                  


                                    OUT                                        OUT
                                    ---                                        ---
   EVAPOTRANSPIRATION =        7833354.38     EVAPOTRANSPIRATION =         153797.33
           STREAMFLOW =        5386443.86             STREAMFLOW =          53593.61
     GW BOUNDARY FLOW =         147555.08       GW BOUNDARY FLOW =            729.72

   INFLOWS - OUTFLOWS =        2942889.32     INFLOWS - OUTFLOWS =        -208120.66
             --------                                   --------

 TOTAL STORAGE CHANGE =        2946102.62         STORAGE CHANGE =        -208123.24
       --------------                             --------------
         LAND SURFACE =        1941586.43           LAND SURFACE =        -141315.80
            SOIL ZONE =        2351523.09              SOIL ZONE =         -93451.37
     UNSATURATED ZONE =        -594173.44       UNSATURATED ZONE =          23419.04
       SATURATED ZONE =        -752833.47         SATURATED ZONE =           3224.89

 OVERALL BUDGET ERROR =          -3213.29           BUDGET ERROR =              2.58


  PERCENT DISCREPANCY =             -0.02    PERCENT DISCREPANCY =              0.00



1
 SUMMARY VOLUMETRIC BUDGET FOR GSFLOW 
 DATE: 04 28 1981              CUMULATIVE TIME STEP:     210
 MODFLOW STRESS PERIOD      2     CURRENT TIME STEP:     210     ITERATIONS:      10

 -----------------------------------------------------------------------------------

   CUMULATIVE VOLUMES               L**3   RATES FOR THIS TIME STEP           L**3/T
   ------------------                      ------------------------

                                     IN                                         IN
                                     --                                         --
        PRECIPITATION =        1.6515D+07          PRECIPITATION =                  
           STREAMFLOW =                               STREAMFLOW =                  
     GW BOUNDARY FLOW =                         GW BOUNDARY FLOW =                  


                                    OUT                                        OUT
                                    ---                                        ---
   EVAPOTRANSPIRATION =        9092634.74     EVAPOTRANSPIRATION =         210728.36
           STREAMFLOW =        5646138.81             STREAMFLOW =          30404.39
     GW BOUNDARY FLOW =         152652.38       GW BOUNDARY FLOW =            727.00

   INFLOWS - OUTFLOWS =        1624006.95     INFLOWS - OUTFLOWS =        -241859.75
             --------                                   --------

 TOTAL STORAGE CHANGE =        1627197.93         STORAGE CHANGE =        -241861.35
       --------------                             --------------
         LAND SURFACE =        1047886.51           LAND SURFACE =        -108965.88
            SOIL ZONE =        1856954.71              SOIL ZONE =        -138131.64
     UNSATURATED ZONE =        -537988.43       UNSATURATED ZONE =           3753.71
       SATURATED ZONE =        -739654.86         SATURATED ZONE =           1482.45

 OVERALL BUDGET ERROR =          -3190.98           BUDGET ERROR =              1.60


  PERCENT DISCREPANCY =             -0.02    PERCENT DISCREPANCY =              0.00



1
 SUMMARY VOLUMETRIC BUDGET FOR GSFLOW 
 DATE: 05 05 1981              CUMULATIVE TIME STEP:     217
 MODFLOW STRESS PERIOD      2     CURRENT TIME STEP:     217     ITERATIONS:      10

 -----------------------------------------------------------------------------------

   CUMULATIVE VOLUMES               L**3   RATES FOR THIS TIME STEP           L**3/T
   ------------------                      ------------------------

                                     IN                                         IN
                                     --                                         --
        PRECIPITATION =        1.6515D+07          PRECIPITATION =                  
           STREAMFLOW =                               STREAMFLOW =                  
     GW BOUNDARY FLOW =                         GW BOUNDARY FLOW =                  


                                    OUT                                        OUT
                                    ---                                        ---
   EVAPOTRANSPIRATION =        9951225.95     EVAPOTRANSPIRATION =          47240.71
           STREAMFLOW =        5769409.70             STREAMFLOW =          11693.97
     GW BOUNDARY FLOW =         157731.15       GW BOUNDARY FLOW =            724.46

   INFLOWS - OUTFLOWS =         637066.09     INFLOWS - OUTFLOWS =         -59659.13
             --------                                   --------

 TOTAL STORAGE CHANGE =         640257.23         STORAGE CHANGE =         -59656.48
       --------------                             --------------
         LAND SURFACE =         583908.85           LAND SURFACE =         -19597.75
            SOIL ZONE =        1410556.08              SOIL ZONE =         -23598.57
     UNSATURATED ZONE =        -603871.39       UNSATURATED ZONE =         -13878.08
       SATURATED ZONE =        -750336.32         SATURATED ZONE =          -2582.08

 OVERALL BUDGET ERROR =          -3191.15           BUDGET ERROR =             -2.66


  PERCENT DISCREPANCY =             -0.02    PERCENT DISCREPANCY =             -0.00



1
 SUMMARY VOLUMETRIC BUDGET FOR GSFLOW 
 DATE: 05 12 1981              CUMULATIVE TIME STEP:     224
 MODFLOW STRESS PERIOD      2     CURRENT TIME STEP:     224     ITERATIONS:      10

 -----------------------------------------------------------------------------------

   CUMULATIVE VOLUMES               L**3   RATES FOR THIS TIME STEP           L**3/T
   ------------------                      ------------------------

                                     IN                                         IN
                                     --                                         --
        PRECIPITATION =        1.6515D+07          PRECIPITATION =                  
           STREAMFLOW =                               STREAMFLOW =                  
     GW BOUNDARY FLOW =                         GW BOUNDARY FLOW =                  


                                    OUT                                        OUT
                                    ---                                        ---
   EVAPOTRANSPIRATION =        1.0484D+07     EVAPOTRANSPIRATION =         102251.31
           STREAMFLOW =        5850186.30             STREAMFLOW =          12770.73
     GW BOUNDARY FLOW =         162798.52       GW BOUNDARY FLOW =            723.81

   INFLOWS - OUTFLOWS =          18286.18     INFLOWS - OUTFLOWS =        -115745.86
             --------                                   --------

 TOTAL STORAGE CHANGE =          21502.94         STORAGE CHANGE =        -115741.38
       --------------                             --------------
         LAND SURFACE =         364139.12           LAND SURFACE =         -39545.55
            SOIL ZONE =        1128021.92              SOIL ZONE =         -61396.60
     UNSATURATED ZONE =        -693079.91       UNSATURATED ZONE =         -10042.35
       SATURATED ZONE =        -777578.19         SATURATED ZONE =          -4756.87

 OVERALL BUDGET ERROR =          -3216.76           BUDGET ERROR =             -4.48


  PERCENT DISCREPANCY =             -0.02    PERCENT DISCREPANCY =             -0.00



1
 SUMMARY VOLUMETRIC BUDGET FOR GSFLOW 
 DATE: 05 19 1981              CUMULATIVE TIME STEP:     231
 MODFLOW STRESS PERIOD      2     CURRENT TIME STEP:     231     ITERATIONS:      12

 -----------------------------------------------------------------------------------

   CUMULATIVE VOLUMES               L**3   RATES FOR THIS TIME STEP           L**3/T
   ------------------                      ------------------------

                                     IN                                         IN
                                     --                                         --
        PRECIPITATION =        1.7837D+07          PRECIPITATION =         169045.43
           STREAMFLOW =                               STREAMFLOW =                  
     GW BOUNDARY FLOW =                         GW BOUNDARY FLOW =                  


                                    OUT                                        OUT
                                    ---                                        ---
   EVAPOTRANSPIRATION =        1.0831D+07     EVAPOTRANSPIRATION =          31098.89
           STREAMFLOW =        6003845.24             STREAMFLOW =          31351.53
     GW BOUNDARY FLOW =         167868.47       GW BOUNDARY FLOW =            725.85

   INFLOWS - OUTFLOWS =         834243.93     INFLOWS - OUTFLOWS =         105869.15
             --------                                   --------

 TOTAL STORAGE CHANGE =         837491.98         STORAGE CHANGE =         105873.39
       --------------                             --------------
         LAND SURFACE =         315733.71           LAND SURFACE =          16905.78
            SOIL ZONE =        2063747.68              SOIL ZONE =          86184.61
     UNSATURATED ZONE =        -728769.03       UNSATURATED ZONE =           7048.70
       SATURATED ZONE =        -813220.38         SATURATED ZONE =          -4265.71

 OVERALL BUDGET ERROR =          -3248.05           BUDGET ERROR =             -4.23


  PERCENT DISCREPANCY =             -0.02    PERCENT DISCREPANCY =             -0.00



1
 SUMMARY VOLUMETRIC BUDGET FOR GSFLOW 
 DATE: 05 26 1981              CUMULATIVE TIME STEP:     238
 MODFLOW STRESS PERIOD      2     CURRENT TIME STEP:     238     ITERATIONS:      11

 -----------------------------------------------------------------------------------

   CUMULATIVE VOLUMES               L**3   RATES FOR THIS TIME STEP           L**3/T
   ------------------                      ------------------------

                                     IN                                         IN
                                     --                                         --
        PRECIPITATION =        1.8252D+07          PRECIPITATION =         284303.67
           STREAMFLOW =                               STREAMFLOW =                  
     GW BOUNDARY FLOW =                         GW BOUNDARY FLOW =                  


                                    OUT                                        OUT
                                    ---                                        ---
   EVAPOTRANSPIRATION =        1.1624D+07     EVAPOTRANSPIRATION =         126247.52
           STREAMFLOW =        6140573.98             STREAMFLOW =          24093.40
     GW BOUNDARY FLOW =         172942.11       GW BOUNDARY FLOW =            724.56

   INFLOWS - OUTFLOWS =         314574.79     INFLOWS - OUTFLOWS =         133238.19
             --------                                   --------

 TOTAL STORAGE CHANGE =         317844.74         STORAGE CHANGE =         133242.79
       --------------                             --------------
         LAND SURFACE =         197572.68           LAND SURFACE =         -13397.86
            SOIL ZONE =        1730272.89              SOIL ZONE =         158558.06
     UNSATURATED ZONE =        -754966.14       UNSATURATED ZONE =          -6255.71
       SATURATED ZONE =        -855034.69         SATURATED ZONE =          -5661.69

 OVERALL BUDGET ERROR =          -3269.95           BUDGET ERROR =             -4.60


  PERCENT DISCREPANCY =             -0.02    PERCENT DISCREPANCY =             -0.00



1
 SUMMARY VOLUMETRIC BUDGET FOR GSFLOW 
 DATE: 06 02 1981              CUMULATIVE TIME STEP:     245
 MODFLOW STRESS PERIOD      2     CURRENT TIME STEP:     245     ITERATIONS:       9

 -----------------------------------------------------------------------------------

   CUMULATIVE VOLUMES               L**3   RATES FOR THIS TIME STEP           L**3/T
   ------------------                      ------------------------

                                     IN                                         IN
                                     --                                         --
        PRECIPITATION =        1.8318D+07          PRECIPITATION =          50869.96
           STREAMFLOW =                               STREAMFLOW =                  
     GW BOUNDARY FLOW =                         GW BOUNDARY FLOW =                  


                                    OUT                                        OUT
                                    ---                                        ---
   EVAPOTRANSPIRATION =        1.2454D+07     EVAPOTRANSPIRATION =          66802.00
           STREAMFLOW =        6227142.34             STREAMFLOW =           9136.10
     GW BOUNDARY FLOW =         178007.87       GW BOUNDARY FLOW =            722.99

   INFLOWS - OUTFLOWS =        -540896.34     INFLOWS - OUTFLOWS =         -25791.14
             --------                                   --------

 TOTAL STORAGE CHANGE =        -537589.75         STORAGE CHANGE =         -25785.27
       --------------                             --------------
         LAND SURFACE =         119474.98           LAND SURFACE =          25659.25
            SOIL ZONE =        1082186.50              SOIL ZONE =         -31326.95
     UNSATURATED ZONE =        -832201.44       UNSATURATED ZONE =         -12121.64
       SATURATED ZONE =        -907049.79         SATURATED ZONE =          -7995.92

 OVERALL BUDGET ERROR =          -3306.59           BUDGET ERROR =             -5.87


  PERCENT DISCREPANCY =             -0.02    PERCENT DISCREPANCY =             -0.01



1
 SUMMARY VOLUMETRIC BUDGET FOR GSFLOW 
 DATE: 06 09 1981              CUMULATIVE TIME STEP:     252
 MODFLOW STRESS PERIOD      2     CURRENT TIME STEP:     252     ITERATIONS:      10

 -----------------------------------------------------------------------------------

   CUMULATIVE VOLUMES               L**3   RATES FOR THIS TIME STEP           L**3/T
   ------------------                      ------------------------

                                     IN                                         IN
                                     --                                         --
        PRECIPITATION =        1.8318D+07          PRECIPITATION =                  
           STREAMFLOW =                               STREAMFLOW =                  
     GW BOUNDARY FLOW =                         GW BOUNDARY FLOW =                  


                                    OUT                                        OUT
                                    ---                                        ---
   EVAPOTRANSPIRATION =        1.3011D+07     EVAPOTRANSPIRATION =          56780.55
           STREAMFLOW =        6282012.08             STREAMFLOW =           7218.56
     GW BOUNDARY FLOW =         183065.72       GW BOUNDARY FLOW =            722.29

   INFLOWS - OUTFLOWS =       -1157900.61     INFLOWS - OUTFLOWS =         -64721.40
             --------                                   --------

 TOTAL STORAGE CHANGE =       -1154555.55         STORAGE CHANGE =         -64716.07
       --------------                             --------------
         LAND SURFACE =          39669.53           LAND SURFACE =          -4382.74
            SOIL ZONE =         687085.89              SOIL ZONE =         -39803.71
     UNSATURATED ZONE =        -915180.70       UNSATURATED ZONE =         -11815.31
       SATURATED ZONE =        -966130.26         SATURATED ZONE =          -8714.33

 OVERALL BUDGET ERROR =          -3345.06           BUDGET ERROR =             -5.33


  PERCENT DISCREPANCY =             -0.02    PERCENT DISCREPANCY =             -0.01



1
 SUMMARY VOLUMETRIC BUDGET FOR GSFLOW 
 DATE: 06 16 1981              CUMULATIVE TIME STEP:     259
 MODFLOW STRESS PERIOD      2     CURRENT TIME STEP:     259     ITERATIONS:       9

 -----------------------------------------------------------------------------------

   CUMULATIVE VOLUMES               L**3   RATES FOR THIS TIME STEP           L**3/T
   ------------------                      ------------------------

                                     IN                                         IN
                                     --                                         --
        PRECIPITATION =        1.8318D+07          PRECIPITATION =                  
           STREAMFLOW =                               STREAMFLOW =                  
     GW BOUNDARY FLOW =                         GW BOUNDARY FLOW =                  


                                    OUT                                        OUT
                                    ---                                        ---
   EVAPOTRANSPIRATION =        1.3222D+07     EVAPOTRANSPIRATION =          48994.65
           STREAMFLOW =        6329674.00             STREAMFLOW =           6652.91
     GW BOUNDARY FLOW =         188120.42       GW BOUNDARY FLOW =            721.99

   INFLOWS - OUTFLOWS =       -1421632.38     INFLOWS - OUTFLOWS =         -56369.55
             --------                                   --------

 TOTAL STORAGE CHANGE =       -1418249.30         STORAGE CHANGE =         -56364.28
       --------------                             --------------
         LAND SURFACE =          25589.68           LAND SURFACE =          -3042.77
            SOIL ZONE =         587235.90              SOIL ZONE =         -31642.35
     UNSATURATED ZONE =       -1003331.16       UNSATURATED ZONE =         -12790.28
       SATURATED ZONE =       -1027743.72         SATURATED ZONE =          -8888.88

 OVERALL BUDGET ERROR =          -3383.07           BUDGET ERROR =             -5.27


  PERCENT DISCREPANCY =             -0.02    PERCENT DISCREPANCY =             -0.01



1
 SUMMARY VOLUMETRIC BUDGET FOR GSFLOW 
 DATE: 06 23 1981              CUMULATIVE TIME STEP:     266
 MODFLOW STRESS PERIOD      2     CURRENT TIME STEP:     266     ITERATIONS:      11

 -----------------------------------------------------------------------------------

   CUMULATIVE VOLUMES               L**3   RATES FOR THIS TIME STEP           L**3/T
   ------------------                      ------------------------

                                     IN                                         IN
                                     --                                         --
        PRECIPITATION =        1.8318D+07          PRECIPITATION =                  
           STREAMFLOW =                               STREAMFLOW =                  
     GW BOUNDARY FLOW =                         GW BOUNDARY FLOW =                  


                                    OUT                                        OUT
                                    ---                                        ---
   EVAPOTRANSPIRATION =        1.3565D+07     EVAPOTRANSPIRATION =          40204.61
           STREAMFLOW =        6374026.04             STREAMFLOW =           6089.86
     GW BOUNDARY FLOW =         193173.28       GW BOUNDARY FLOW =            721.70

   INFLOWS - OUTFLOWS =       -1813561.35     INFLOWS - OUTFLOWS =         -47016.18
             --------                                   --------

 TOTAL STORAGE CHANGE =       -1810139.04         STORAGE CHANGE =         -47010.54
       --------------                             --------------
         LAND SURFACE =           6959.28           LAND SURFACE =          -1578.51
            SOIL ZONE =         366994.40              SOIL ZONE =         -23646.78
     UNSATURATED ZONE =       -1090379.62       UNSATURATED ZONE =         -12147.11
       SATURATED ZONE =       -1093713.10         SATURATED ZONE =          -9638.13

 OVERALL BUDGET ERROR =          -3422.31           BUDGET ERROR =             -5.64


  PERCENT DISCREPANCY =             -0.02    PERCENT DISCREPANCY =             -0.01



1
 SUMMARY VOLUMETRIC BUDGET FOR GSFLOW 
 DATE: 06 30 1981              CUMULATIVE TIME STEP:     273
 MODFLOW STRESS PERIOD      2     CURRENT TIME STEP:     273     ITERATIONS:       9

 -----------------------------------------------------------------------------------

   CUMULATIVE VOLUMES               L**3   RATES FOR THIS TIME STEP           L**3/T
   ------------------                      ------------------------

                                     IN                                         IN
[...]
                                    ---                                        ---
   EVAPOTRANSPIRATION =        2.8430D+08     EVAPOTRANSPIRATION =          49211.18
           STREAMFLOW =        1.8369D+08             STREAMFLOW =           7397.04
     GW BOUNDARY FLOW =        4176942.24       GW BOUNDARY FLOW =            726.11

   INFLOWS - OUTFLOWS =       -7108037.13     INFLOWS - OUTFLOWS =         -57334.33
             --------                                   --------

 TOTAL STORAGE CHANGE =       -7077185.20         STORAGE CHANGE =         -57335.82
       --------------                             --------------
         LAND SURFACE =         214963.45           LAND SURFACE =         -10645.32
            SOIL ZONE =         344145.04              SOIL ZONE =         -25089.04
     UNSATURATED ZONE =        5285712.46       UNSATURATED ZONE =         -29194.93
       SATURATED ZONE =       -1.2922D+07         SATURATED ZONE =           7593.47

 OVERALL BUDGET ERROR =         -30851.93           BUDGET ERROR =              1.48


  PERCENT DISCREPANCY =             -0.01    PERCENT DISCREPANCY =              0.00



1
 SUMMARY VOLUMETRIC BUDGET FOR GSFLOW 
 DATE: 07 30 1996              CUMULATIVE TIME STEP:    5782
 MODFLOW STRESS PERIOD      2     CURRENT TIME STEP:    5782     ITERATIONS:      10

 -----------------------------------------------------------------------------------

   CUMULATIVE VOLUMES               L**3   RATES FOR THIS TIME STEP           L**3/T
   ------------------                      ------------------------

                                     IN                                         IN
                                     --                                         --
        PRECIPITATION =        4.6511D+08          PRECIPITATION =                  
           STREAMFLOW =                               STREAMFLOW =                  
     GW BOUNDARY FLOW =                         GW BOUNDARY FLOW =                  


                                    OUT                                        OUT
                                    ---                                        ---
   EVAPOTRANSPIRATION =        2.8461D+08     EVAPOTRANSPIRATION =          33034.73
           STREAMFLOW =        1.8374D+08             STREAMFLOW =           7088.17
     GW BOUNDARY FLOW =        4182022.89       GW BOUNDARY FLOW =            725.68

   INFLOWS - OUTFLOWS =       -7422742.98     INFLOWS - OUTFLOWS =         -40848.58
             --------                                   --------

 TOTAL STORAGE CHANGE =       -7391890.84         STORAGE CHANGE =         -40847.83
       --------------                             --------------
         LAND SURFACE =         152309.38           LAND SURFACE =          -7555.65
            SOIL ZONE =         244146.56              SOIL ZONE =         -11677.52
     UNSATURATED ZONE =        5086563.82       UNSATURATED ZONE =         -28072.62
       SATURATED ZONE =       -1.2875D+07         SATURATED ZONE =           6457.96

 OVERALL BUDGET ERROR =         -30852.14           BUDGET ERROR =             -0.75


  PERCENT DISCREPANCY =             -0.01    PERCENT DISCREPANCY =             -0.00



1
 SUMMARY VOLUMETRIC BUDGET FOR GSFLOW 
 DATE: 08 06 1996              CUMULATIVE TIME STEP:    5789
 MODFLOW STRESS PERIOD      2     CURRENT TIME STEP:    5789     ITERATIONS:      10

 -----------------------------------------------------------------------------------

   CUMULATIVE VOLUMES               L**3   RATES FOR THIS TIME STEP           L**3/T
   ------------------                      ------------------------

                                     IN                                         IN
                                     --                                         --
        PRECIPITATION =        4.6511D+08          PRECIPITATION =                  
           STREAMFLOW =                               STREAMFLOW =                  
     GW BOUNDARY FLOW =                         GW BOUNDARY FLOW =                  


                                    OUT                                        OUT
                                    ---                                        ---
   EVAPOTRANSPIRATION =        2.8479D+08     EVAPOTRANSPIRATION =          26181.23
           STREAMFLOW =        1.8379D+08             STREAMFLOW =           6802.12
     GW BOUNDARY FLOW =        4187101.86       GW BOUNDARY FLOW =            725.48

   INFLOWS - OUTFLOWS =       -7660458.18     INFLOWS - OUTFLOWS =         -33708.83
             --------                                   --------

 TOTAL STORAGE CHANGE =       -7629598.30         STORAGE CHANGE =         -33707.38
       --------------                             --------------
         LAND SURFACE =         111776.46           LAND SURFACE =          -5017.65
            SOIL ZONE =         196891.20              SOIL ZONE =          -7417.28
     UNSATURATED ZONE =        4895618.65       UNSATURATED ZONE =         -26499.33
       SATURATED ZONE =       -1.2834D+07         SATURATED ZONE =           5226.87

 OVERALL BUDGET ERROR =         -30859.88           BUDGET ERROR =             -1.45


  PERCENT DISCREPANCY =             -0.01    PERCENT DISCREPANCY =             -0.00



1
 SUMMARY VOLUMETRIC BUDGET FOR GSFLOW 
 DATE: 08 13 1996              CUMULATIVE TIME STEP:    5796
 MODFLOW STRESS PERIOD      2     CURRENT TIME STEP:    5796     ITERATIONS:      10

 -----------------------------------------------------------------------------------

   CUMULATIVE VOLUMES               L**3   RATES FOR THIS TIME STEP           L**3/T
   ------------------                      ------------------------

                                     IN                                         IN
                                     --                                         --
        PRECIPITATION =        4.6531D+08          PRECIPITATION =          54454.08
           STREAMFLOW =                               STREAMFLOW =                  
     GW BOUNDARY FLOW =                         GW BOUNDARY FLOW =                  


                                    OUT                                        OUT
                                    ---                                        ---
   EVAPOTRANSPIRATION =        2.8500D+08     EVAPOTRANSPIRATION =          36694.71
           STREAMFLOW =        1.8384D+08             STREAMFLOW =           7995.07
     GW BOUNDARY FLOW =        4192179.43       GW BOUNDARY FLOW =            725.37

   INFLOWS - OUTFLOWS =       -7727019.88     INFLOWS - OUTFLOWS =           9038.93
             --------                                   --------

 TOTAL STORAGE CHANGE =       -7696140.67         STORAGE CHANGE =           9040.60
       --------------                             --------------
         LAND SURFACE =         105220.94           LAND SURFACE =          -5194.35
            SOIL ZONE =         284208.31              SOIL ZONE =          35087.65
     UNSATURATED ZONE =        4713890.36       UNSATURATED ZONE =         -25452.65
       SATURATED ZONE =       -1.2799D+07         SATURATED ZONE =           4599.95

 OVERALL BUDGET ERROR =         -30879.21           BUDGET ERROR =             -1.66


  PERCENT DISCREPANCY =             -0.01    PERCENT DISCREPANCY =             -0.00



1
 SUMMARY VOLUMETRIC BUDGET FOR GSFLOW 
 DATE: 08 20 1996              CUMULATIVE TIME STEP:    5803
 MODFLOW STRESS PERIOD      2     CURRENT TIME STEP:    5803     ITERATIONS:      10

 -----------------------------------------------------------------------------------

   CUMULATIVE VOLUMES               L**3   RATES FOR THIS TIME STEP           L**3/T
   ------------------                      ------------------------

                                     IN                                         IN
                                     --                                         --
        PRECIPITATION =        4.6531D+08          PRECIPITATION =                  
           STREAMFLOW =                               STREAMFLOW =                  
     GW BOUNDARY FLOW =                         GW BOUNDARY FLOW =                  


                                    OUT                                        OUT
                                    ---                                        ---
   EVAPOTRANSPIRATION =        2.8522D+08     EVAPOTRANSPIRATION =          18006.76
           STREAMFLOW =        1.8389D+08             STREAMFLOW =           6546.54
     GW BOUNDARY FLOW =        4197254.93       GW BOUNDARY FLOW =            724.85

   INFLOWS - OUTFLOWS =       -7999063.53     INFLOWS - OUTFLOWS =         -25278.16
             --------                                   --------

 TOTAL STORAGE CHANGE =       -7968176.90         STORAGE CHANGE =         -25276.29
       --------------                             --------------
         LAND SURFACE =          44442.31           LAND SURFACE =          -2851.34
            SOIL ZONE =         218571.16              SOIL ZONE =          -1744.03
     UNSATURATED ZONE =        4541868.07       UNSATURATED ZONE =         -24122.29
       SATURATED ZONE =       -1.2773D+07         SATURATED ZONE =           3441.38

 OVERALL BUDGET ERROR =         -30886.63           BUDGET ERROR =             -1.87


  PERCENT DISCREPANCY =             -0.01    PERCENT DISCREPANCY =             -0.01



1
 SUMMARY VOLUMETRIC BUDGET FOR GSFLOW 
 DATE: 08 27 1996              CUMULATIVE TIME STEP:    5810
 MODFLOW STRESS PERIOD      2     CURRENT TIME STEP:    5810     ITERATIONS:       9

 -----------------------------------------------------------------------------------

   CUMULATIVE VOLUMES               L**3   RATES FOR THIS TIME STEP           L**3/T
   ------------------                      ------------------------

                                     IN                                         IN
                                     --                                         --
        PRECIPITATION =        4.6531D+08          PRECIPITATION =                  
           STREAMFLOW =                               STREAMFLOW =                  
     GW BOUNDARY FLOW =                         GW BOUNDARY FLOW =                  


                                    OUT                                        OUT
                                    ---                                        ---
   EVAPOTRANSPIRATION =        2.8539D+08     EVAPOTRANSPIRATION =          16950.38
           STREAMFLOW =        1.8394D+08             STREAMFLOW =           6376.20
     GW BOUNDARY FLOW =        4202327.03       GW BOUNDARY FLOW =            724.40

   INFLOWS - OUTFLOWS =       -8210891.70     INFLOWS - OUTFLOWS =         -24050.98
             --------                                   --------

 TOTAL STORAGE CHANGE =       -8180003.90         STORAGE CHANGE =         -24051.88
       --------------                             --------------
         LAND SURFACE =          21435.23           LAND SURFACE =          -2621.72
            SOIL ZONE =         173435.15              SOIL ZONE =          -1015.96
     UNSATURATED ZONE =        4377874.82       UNSATURATED ZONE =         -22944.56
       SATURATED ZONE =       -1.2753D+07         SATURATED ZONE =           2530.36

 OVERALL BUDGET ERROR =         -30887.81           BUDGET ERROR =              0.91


  PERCENT DISCREPANCY =             -0.01    PERCENT DISCREPANCY =              0.00



1
 SUMMARY VOLUMETRIC BUDGET FOR GSFLOW 
 DATE: 09 03 1996              CUMULATIVE TIME STEP:    5817
 MODFLOW STRESS PERIOD      2     CURRENT TIME STEP:    5817     ITERATIONS:       9

 -----------------------------------------------------------------------------------

   CUMULATIVE VOLUMES               L**3   RATES FOR THIS TIME STEP           L**3/T
   ------------------                      ------------------------

                                     IN                                         IN
                                     --                                         --
        PRECIPITATION =        4.6531D+08          PRECIPITATION =                  
           STREAMFLOW =                               STREAMFLOW =                  
     GW BOUNDARY FLOW =                         GW BOUNDARY FLOW =                  


                                    OUT                                        OUT
                                    ---                                        ---
   EVAPOTRANSPIRATION =        2.8550D+08     EVAPOTRANSPIRATION =          15522.64
           STREAMFLOW =        1.8398D+08             STREAMFLOW =           6259.40
     GW BOUNDARY FLOW =        4207395.91       GW BOUNDARY FLOW =            723.94

   INFLOWS - OUTFLOWS =       -8378937.80     INFLOWS - OUTFLOWS =         -22505.98
             --------                                   --------

 TOTAL STORAGE CHANGE =       -8348052.76         STORAGE CHANGE =         -22506.32
       --------------                             --------------
         LAND SURFACE =           7240.32           LAND SURFACE =          -1278.90
            SOIL ZONE =         161473.23              SOIL ZONE =          -1061.77
     UNSATURATED ZONE =        4221695.40       UNSATURATED ZONE =         -22123.79
       SATURATED ZONE =       -1.2738D+07         SATURATED ZONE =           1958.13

 OVERALL BUDGET ERROR =         -30885.04           BUDGET ERROR =              0.34


  PERCENT DISCREPANCY =             -0.01    PERCENT DISCREPANCY =              0.00



1
 SUMMARY VOLUMETRIC BUDGET FOR GSFLOW 
 DATE: 09 10 1996              CUMULATIVE TIME STEP:    5824
 MODFLOW STRESS PERIOD      2     CURRENT TIME STEP:    5824     ITERATIONS:       8

 -----------------------------------------------------------------------------------

   CUMULATIVE VOLUMES               L**3   RATES FOR THIS TIME STEP           L**3/T
   ------------------                      ------------------------

                                     IN                                         IN
                                     --                                         --
        PRECIPITATION =        4.6531D+08          PRECIPITATION =                  
           STREAMFLOW =                               STREAMFLOW =                  
     GW BOUNDARY FLOW =                         GW BOUNDARY FLOW =                  


                                    OUT                                        OUT
                                    ---                                        ---
   EVAPOTRANSPIRATION =        2.8560D+08     EVAPOTRANSPIRATION =          14500.21
           STREAMFLOW =        1.8402D+08             STREAMFLOW =           6149.39
     GW BOUNDARY FLOW =        4212461.71       GW BOUNDARY FLOW =            723.50

   INFLOWS - OUTFLOWS =       -8518274.22     INFLOWS - OUTFLOWS =         -21373.10
             --------                                   --------

 TOTAL STORAGE CHANGE =       -8487427.67         STORAGE CHANGE =         -21379.03
       --------------                             --------------
         LAND SURFACE =           2510.71           LAND SURFACE =           -704.62
            SOIL ZONE =         167076.96              SOIL ZONE =           -737.93
     UNSATURATED ZONE =        4070059.51       UNSATURATED ZONE =         -21382.10
       SATURATED ZONE =       -1.2727D+07         SATURATED ZONE =           1445.63

 OVERALL BUDGET ERROR =         -30846.56           BUDGET ERROR =              5.93


  PERCENT DISCREPANCY =             -0.01    PERCENT DISCREPANCY =              0.03



1
 SUMMARY VOLUMETRIC BUDGET FOR GSFLOW 
 DATE: 09 17 1996              CUMULATIVE TIME STEP:    5831
 MODFLOW STRESS PERIOD      2     CURRENT TIME STEP:    5831     ITERATIONS:       8

 -----------------------------------------------------------------------------------

   CUMULATIVE VOLUMES               L**3   RATES FOR THIS TIME STEP           L**3/T
   ------------------                      ------------------------

                                     IN                                         IN
                                     --                                         --
        PRECIPITATION =        4.6637D+08          PRECIPITATION =                  
           STREAMFLOW =                               STREAMFLOW =                  
     GW BOUNDARY FLOW =                         GW BOUNDARY FLOW =                  


                                    OUT                                        OUT
                                    ---                                        ---
   EVAPOTRANSPIRATION =        2.8577D+08     EVAPOTRANSPIRATION =          52774.70
           STREAMFLOW =        1.8409D+08             STREAMFLOW =          10098.92
     GW BOUNDARY FLOW =        4217527.09       GW BOUNDARY FLOW =            724.07

   INFLOWS - OUTFLOWS =       -7710346.37     INFLOWS - OUTFLOWS =         -63597.69
             --------                                   --------

 TOTAL STORAGE CHANGE =       -7679535.07         STORAGE CHANGE =         -63602.24
       --------------                             --------------
         LAND SURFACE =            882.14           LAND SURFACE =         -33826.70
            SOIL ZONE =        1113348.50              SOIL ZONE =         -10050.65
     UNSATURATED ZONE =        3924954.96       UNSATURATED ZONE =         -20337.13
       SATURATED ZONE =       -1.2719D+07         SATURATED ZONE =            612.24

 OVERALL BUDGET ERROR =         -30811.30           BUDGET ERROR =              4.54


  PERCENT DISCREPANCY =             -0.01    PERCENT DISCREPANCY =              0.01



1
 SUMMARY VOLUMETRIC BUDGET FOR GSFLOW 
 DATE: 09 24 1996              CUMULATIVE TIME STEP:    5838
 MODFLOW STRESS PERIOD      2     CURRENT TIME STEP:    5838     ITERATIONS:      13

 -----------------------------------------------------------------------------------

   CUMULATIVE VOLUMES               L**3   RATES FOR THIS TIME STEP           L**3/T
   ------------------                      ------------------------

                                     IN                                         IN
                                     --                                         --
        PRECIPITATION =        4.6637D+08          PRECIPITATION =                  
           STREAMFLOW =                               STREAMFLOW =                  
     GW BOUNDARY FLOW =                         GW BOUNDARY FLOW =                  


                                    OUT                                        OUT
                                    ---                                        ---
   EVAPOTRANSPIRATION =        2.8624D+08     EVAPOTRANSPIRATION =          54924.13
           STREAMFLOW =        1.8414D+08             STREAMFLOW =           6708.78
     GW BOUNDARY FLOW =        4222590.80       GW BOUNDARY FLOW =            723.00

   INFLOWS - OUTFLOWS =       -8241579.13     INFLOWS - OUTFLOWS =         -62355.91
             --------                                   --------

 TOTAL STORAGE CHANGE =       -8210775.26         STORAGE CHANGE =         -62350.28
       --------------                             --------------
         LAND SURFACE =                             LAND SURFACE =                  
            SOIL ZONE =         720205.28              SOIL ZONE =         -42843.16
     UNSATURATED ZONE =        3787452.67       UNSATURATED ZONE =         -19177.39
       SATURATED ZONE =       -1.2718D+07         SATURATED ZONE =           -329.74

 OVERALL BUDGET ERROR =         -30803.87           BUDGET ERROR =             -5.63


  PERCENT DISCREPANCY =             -0.01    PERCENT DISCREPANCY =             -0.01



