1
 SUMMARY VOLUMETRIC BUDGET FOR GSFLOW 
 DATE: 10 07 1980              CUMULATIVE TIME STEP:       7
 MODFLOW STRESS PERIOD      2     CURRENT TIME STEP:       7     ITERATIONS:       4

 -----------------------------------------------------------------------------------

   CUMULATIVE VOLUMES               L**3   RATES FOR THIS TIME STEP           L**3/T
   ------------------                      ------------------------

                                     IN                                         IN
                                     --                                         --
        PRECIPITATION =                            PRECIPITATION =                  
           STREAMFLOW =                               STREAMFLOW =                  
     GW BOUNDARY FLOW =                         GW BOUNDARY FLOW =                  


                                    OUT                                        OUT
                                    ---                                        ---
   EVAPOTRANSPIRATION =          63052.02     EVAPOTRANSPIRATION =           9234.40
           STREAMFLOW =          43081.79             STREAMFLOW =           6083.36
     GW BOUNDARY FLOW =           5067.91       GW BOUNDARY FLOW =            723.89

   INFLOWS - OUTFLOWS =        -111201.71     INFLOWS - OUTFLOWS =         -16041.66
             --------                                   --------

 TOTAL STORAGE CHANGE =        -110967.58         STORAGE CHANGE =         -16007.41
       --------------                             --------------
         LAND SURFACE =                             LAND SURFACE =                  
            SOIL ZONE =          47393.18              SOIL ZONE =           6452.18
     UNSATURATED ZONE =        -144965.30       UNSATURATED ZONE =         -20382.35
       SATURATED ZONE =         -13395.46         SATURATED ZONE =          -2077.23

 OVERALL BUDGET ERROR =           -234.13           BUDGET ERROR =            -34.25


  PERCENT DISCREPANCY =             -0.21    PERCENT DISCREPANCY =             -0.21



1
 SUMMARY VOLUMETRIC BUDGET FOR GSFLOW 
 DATE: 10 14 1980              CUMULATIVE TIME STEP:      14
 MODFLOW STRESS PERIOD      2     CURRENT TIME STEP:      14     ITERATIONS:       4

 -----------------------------------------------------------------------------------

   CUMULATIVE VOLUMES               L**3   RATES FOR THIS TIME STEP           L**3/T
   ------------------                      ------------------------

                                     IN                                         IN
                                     --                                         --
        PRECIPITATION =         650779.83          PRECIPITATION =         164754.40
           STREAMFLOW =                               STREAMFLOW =                  
     GW BOUNDARY FLOW =                         GW BOUNDARY FLOW =                  


                                    OUT                                        OUT
                                    ---                                        ---
   EVAPOTRANSPIRATION =         147482.66     EVAPOTRANSPIRATION =           7886.22
           STREAMFLOW =          92731.14             STREAMFLOW =           7469.23
     GW BOUNDARY FLOW =          10135.61       GW BOUNDARY FLOW =            724.11

   INFLOWS - OUTFLOWS =         400430.42     INFLOWS - OUTFLOWS =         148674.83
             --------                                   --------

 TOTAL STORAGE CHANGE =         400898.76         STORAGE CHANGE =         148710.07
       --------------                             --------------
         LAND SURFACE =         277689.24           LAND SURFACE =         136623.45
            SOIL ZONE =         436860.53              SOIL ZONE =          34194.77
     UNSATURATED ZONE =        -284617.09       UNSATURATED ZONE =         -19599.40
       SATURATED ZONE =         -29033.92         SATURATED ZONE =          -2508.74

 OVERALL BUDGET ERROR =           -468.34           BUDGET ERROR =            -35.24


  PERCENT DISCREPANCY =             -0.07    PERCENT DISCREPANCY =             -0.02



1
 SUMMARY VOLUMETRIC BUDGET FOR GSFLOW 
 DATE: 10 21 1980              CUMULATIVE TIME STEP:      21
 MODFLOW STRESS PERIOD      2     CURRENT TIME STEP:      21     ITERATIONS:       5

 -----------------------------------------------------------------------------------

   CUMULATIVE VOLUMES               L**3   RATES FOR THIS TIME STEP           L**3/T
   ------------------                      ------------------------

                                     IN                                         IN
                                     --                                         --
        PRECIPITATION =         733157.03          PRECIPITATION =                  
           STREAMFLOW =                               STREAMFLOW =                  
     GW BOUNDARY FLOW =                         GW BOUNDARY FLOW =                  


                                    OUT                                        OUT
                                    ---                                        ---
   EVAPOTRANSPIRATION =         372657.46     EVAPOTRANSPIRATION =          36151.95
           STREAMFLOW =         144621.09             STREAMFLOW =           7058.83
     GW BOUNDARY FLOW =          15203.74       GW BOUNDARY FLOW =            723.94

   INFLOWS - OUTFLOWS =         200674.74     INFLOWS - OUTFLOWS =         -43934.73
             --------                                   --------

 TOTAL STORAGE CHANGE =         201363.45         STORAGE CHANGE =         -43904.53
       --------------                             --------------
         LAND SURFACE =           2250.88           LAND SURFACE =          -3153.72
            SOIL ZONE =         666223.69              SOIL ZONE =         -18841.99
     UNSATURATED ZONE =        -418520.85       UNSATURATED ZONE =         -18753.74
       SATURATED ZONE =         -48590.27         SATURATED ZONE =          -3155.07

 OVERALL BUDGET ERROR =           -688.71           BUDGET ERROR =            -30.20


  PERCENT DISCREPANCY =             -0.09    PERCENT DISCREPANCY =             -0.07



1
 SUMMARY VOLUMETRIC BUDGET FOR GSFLOW 
 DATE: 10 28 1980              CUMULATIVE TIME STEP:      28
 MODFLOW STRESS PERIOD      2     CURRENT TIME STEP:      28     ITERATIONS:       5

 -----------------------------------------------------------------------------------

   CUMULATIVE VOLUMES               L**3   RATES FOR THIS TIME STEP           L**3/T
   ------------------                      ------------------------

                                     IN                                         IN
                                     --                                         --
        PRECIPITATION =        1070903.53          PRECIPITATION =                  
           STREAMFLOW =                               STREAMFLOW =                  
     GW BOUNDARY FLOW =                         GW BOUNDARY FLOW =                  


                                    OUT                                        OUT
                                    ---                                        ---
   EVAPOTRANSPIRATION =         549855.41     EVAPOTRANSPIRATION =          23594.60
           STREAMFLOW =         199389.11             STREAMFLOW =           8003.26
     GW BOUNDARY FLOW =          20271.41       GW BOUNDARY FLOW =            724.02

   INFLOWS - OUTFLOWS =         301387.60     INFLOWS - OUTFLOWS =         -32321.88
             --------                                   --------

 TOTAL STORAGE CHANGE =         302285.47         STORAGE CHANGE =         -32292.04
       --------------                             --------------
         LAND SURFACE =          24619.51           LAND SURFACE =         -30948.99
            SOIL ZONE =         896672.61              SOIL ZONE =          20239.29
     UNSATURATED ZONE =        -546588.13       UNSATURATED ZONE =         -17916.52
       SATURATED ZONE =         -72418.51         SATURATED ZONE =          -3665.82

 OVERALL BUDGET ERROR =           -897.87           BUDGET ERROR =            -29.84


  PERCENT DISCREPANCY =             -0.08    PERCENT DISCREPANCY =             -0.09



1
 SUMMARY VOLUMETRIC BUDGET FOR GSFLOW 
 DATE: 11 04 1980              CUMULATIVE TIME STEP:      35
 MODFLOW STRESS PERIOD      2     CURRENT TIME STEP:      35     ITERATIONS:       6

 -----------------------------------------------------------------------------------

   CUMULATIVE VOLUMES               L**3   RATES FOR THIS TIME STEP           L**3/T
   ------------------                      ------------------------

                                     IN                                         IN
                                     --                                         --
        PRECIPITATION =        1070903.53          PRECIPITATION =                  
           STREAMFLOW =                               STREAMFLOW =                  
     GW BOUNDARY FLOW =                         GW BOUNDARY FLOW =                  


                                    OUT                                        OUT
                                    ---                                        ---
   EVAPOTRANSPIRATION =         824679.88     EVAPOTRANSPIRATION =          34375.44
           STREAMFLOW =         252107.51             STREAMFLOW =           7055.64
     GW BOUNDARY FLOW =          25338.71       GW BOUNDARY FLOW =            723.81

   INFLOWS - OUTFLOWS =         -31222.57     INFLOWS - OUTFLOWS =         -42154.89
             --------                                   --------

 TOTAL STORAGE CHANGE =         -30124.54         STORAGE CHANGE =         -42128.48
       --------------                             --------------
         LAND SURFACE =                             LAND SURFACE =                  
            SOIL ZONE =         740195.95              SOIL ZONE =         -20504.78
     UNSATURATED ZONE =        -669479.92       UNSATURATED ZONE =         -17299.71
       SATURATED ZONE =        -100840.57         SATURATED ZONE =          -4324.00

 OVERALL BUDGET ERROR =          -1098.02           BUDGET ERROR =            -26.41


  PERCENT DISCREPANCY =             -0.10    PERCENT DISCREPANCY =             -0.06



1
 SUMMARY VOLUMETRIC BUDGET FOR GSFLOW 
 DATE: 11 11 1980              CUMULATIVE TIME STEP:      42
 MODFLOW STRESS PERIOD      2     CURRENT TIME STEP:      42     ITERATIONS:       5

 -----------------------------------------------------------------------------------

   CUMULATIVE VOLUMES               L**3   RATES FOR THIS TIME STEP           L**3/T
   ------------------                      ------------------------

                                     IN                                         IN
                                     --                                         --
        PRECIPITATION =        1573762.54          PRECIPITATION =         255182.19
           STREAMFLOW =                               STREAMFLOW =                  
     GW BOUNDARY FLOW =                         GW BOUNDARY FLOW =                  


                                    OUT                                        OUT
                                    ---                                        ---
   EVAPOTRANSPIRATION =        1023225.16     EVAPOTRANSPIRATION =          14637.74
           STREAMFLOW =         308227.90             STREAMFLOW =          10762.61
     GW BOUNDARY FLOW =          30405.65       GW BOUNDARY FLOW =            724.07

   INFLOWS - OUTFLOWS =         211903.83     INFLOWS - OUTFLOWS =         229057.77
             --------                                   --------

 TOTAL STORAGE CHANGE =         213203.11         STORAGE CHANGE =         229086.12
       --------------                             --------------
         LAND SURFACE =          78612.95           LAND SURFACE =          76659.87
            SOIL ZONE =        1053981.33              SOIL ZONE =         172997.81
     UNSATURATED ZONE =        -787592.11       UNSATURATED ZONE =         -16457.43
       SATURATED ZONE =        -131799.07         SATURATED ZONE =          -4114.12

 OVERALL BUDGET ERROR =          -1299.28           BUDGET ERROR =            -28.34


  PERCENT DISCREPANCY =             -0.08    PERCENT DISCREPANCY =             -0.01



1
 SUMMARY VOLUMETRIC BUDGET FOR GSFLOW 
 DATE: 11 18 1980              CUMULATIVE TIME STEP:      49
 MODFLOW STRESS PERIOD      2     CURRENT TIME STEP:      49     ITERATIONS:       5

 -----------------------------------------------------------------------------------

   CUMULATIVE VOLUMES               L**3   RATES FOR THIS TIME STEP           L**3/T
   ------------------                      ------------------------

                                     IN                                         IN
                                     --                                         --
        PRECIPITATION =        1573762.54          PRECIPITATION =                  
           STREAMFLOW =                               STREAMFLOW =                  
     GW BOUNDARY FLOW =                         GW BOUNDARY FLOW =                  


                                    OUT                                        OUT
                                    ---                                        ---
   EVAPOTRANSPIRATION =        1111729.26     EVAPOTRANSPIRATION =          16700.01
           STREAMFLOW =         371576.81             STREAMFLOW =           9413.28
     GW BOUNDARY FLOW =          35474.19       GW BOUNDARY FLOW =            724.11

   INFLOWS - OUTFLOWS =          54982.28     INFLOWS - OUTFLOWS =         -26837.40
             --------                                   --------

 TOTAL STORAGE CHANGE =          56477.15         STORAGE CHANGE =         -26809.77
       --------------                             --------------
         LAND SURFACE =           8654.86           LAND SURFACE =          -6203.23
            SOIL ZONE =        1114303.32              SOIL ZONE =            309.11
     UNSATURATED ZONE =        -900926.57       UNSATURATED ZONE =         -15938.62
       SATURATED ZONE =        -165554.45         SATURATED ZONE =          -4977.03

 OVERALL BUDGET ERROR =          -1494.87           BUDGET ERROR =            -27.63


  PERCENT DISCREPANCY =             -0.09    PERCENT DISCREPANCY =             -0.10



1
 SUMMARY VOLUMETRIC BUDGET FOR GSFLOW 
 DATE: 11 25 1980              CUMULATIVE TIME STEP:      56
 MODFLOW STRESS PERIOD      2     CURRENT TIME STEP:      56     ITERATIONS:       6

 -----------------------------------------------------------------------------------

   CUMULATIVE VOLUMES               L**3   RATES FOR THIS TIME STEP           L**3/T
   ------------------                      ------------------------

                                     IN                                         IN
                                     --                                         --
        PRECIPITATION =        1648816.13          PRECIPITATION =                  
           STREAMFLOW =                               STREAMFLOW =                  
     GW BOUNDARY FLOW =                         GW BOUNDARY FLOW =                  


                                    OUT                                        OUT
                                    ---                                        ---
   EVAPOTRANSPIRATION =        1184467.17     EVAPOTRANSPIRATION =           8792.25
           STREAMFLOW =         439000.06             STREAMFLOW =           9957.20
     GW BOUNDARY FLOW =          40543.28       GW BOUNDARY FLOW =            724.20

   INFLOWS - OUTFLOWS =         -15194.38     INFLOWS - OUTFLOWS =         -19473.65
             --------                                   --------

 TOTAL STORAGE CHANGE =         -13515.86         STORAGE CHANGE =         -19450.72
       --------------                             --------------
         LAND SURFACE =          55166.83           LAND SURFACE =          -8744.58
            SOIL ZONE =        1143985.05              SOIL ZONE =          10107.58
     UNSATURATED ZONE =       -1010091.07       UNSATURATED ZONE =         -15332.63
       SATURATED ZONE =        -202576.68         SATURATED ZONE =          -5481.09

 OVERALL BUDGET ERROR =          -1678.52           BUDGET ERROR =            -22.93


  PERCENT DISCREPANCY =             -0.10    PERCENT DISCREPANCY =             -0.12



1
 SUMMARY VOLUMETRIC BUDGET FOR GSFLOW 
 DATE: 12 02 1980              CUMULATIVE TIME STEP:      63
 MODFLOW STRESS PERIOD      2     CURRENT TIME STEP:      63     ITERATIONS:       5

 -----------------------------------------------------------------------------------

   CUMULATIVE VOLUMES               L**3   RATES FOR THIS TIME STEP           L**3/T
   ------------------                      ------------------------

                                     IN                                         IN
                                     --                                         --
        PRECIPITATION =        2076621.55          PRECIPITATION =                  
           STREAMFLOW =                               STREAMFLOW =                  
     GW BOUNDARY FLOW =                         GW BOUNDARY FLOW =                  


                                    OUT                                        OUT
                                    ---                                        ---
   EVAPOTRANSPIRATION =        1374038.18     EVAPOTRANSPIRATION =          33943.04
           STREAMFLOW =         523923.53             STREAMFLOW =          15225.40
     GW BOUNDARY FLOW =          45614.46       GW BOUNDARY FLOW =            724.85

   INFLOWS - OUTFLOWS =         133045.39     INFLOWS - OUTFLOWS =         -49893.29
             --------                                   --------

 TOTAL STORAGE CHANGE =         134907.75         STORAGE CHANGE =         -49866.17
       --------------                             --------------
         LAND SURFACE =         152551.10           LAND SURFACE =         -75205.42
            SOIL ZONE =        1332685.19              SOIL ZONE =          42856.74
     UNSATURATED ZONE =       -1110962.91       UNSATURATED ZONE =         -12839.00
       SATURATED ZONE =        -239365.64         SATURATED ZONE =          -4678.49

 OVERALL BUDGET ERROR =          -1862.36           BUDGET ERROR =            -27.12


  PERCENT DISCREPANCY =             -0.09    PERCENT DISCREPANCY =             -0.05



1
 SUMMARY VOLUMETRIC BUDGET FOR GSFLOW 
 DATE: 12 09 1980              CUMULATIVE TIME STEP:      70
 MODFLOW STRESS PERIOD      2     CURRENT TIME STEP:      70     ITERATIONS:       5

 -----------------------------------------------------------------------------------

   CUMULATIVE VOLUMES               L**3   RATES FOR THIS TIME STEP           L**3/T
   ------------------                      ------------------------

                                     IN                                         IN
                                     --                                         --
        PRECIPITATION =        4284363.63          PRECIPITATION =                  
           STREAMFLOW =                               STREAMFLOW =                  
     GW BOUNDARY FLOW =                         GW BOUNDARY FLOW =                  


                                    OUT                                        OUT
                                    ---                                        ---
   EVAPOTRANSPIRATION =        1397456.54     EVAPOTRANSPIRATION =           2942.43
           STREAMFLOW =         623744.09             STREAMFLOW =          14585.21
     GW BOUNDARY FLOW =          50689.19       GW BOUNDARY FLOW =            725.06

   INFLOWS - OUTFLOWS =        2212473.81     INFLOWS - OUTFLOWS =         -18252.70
             --------                                   --------

 TOTAL STORAGE CHANGE =        2214510.47         STORAGE CHANGE =         -18226.55
       --------------                             --------------
         LAND SURFACE =        2335216.87           LAND SURFACE =          -2942.43
            SOIL ZONE =        1367386.94              SOIL ZONE =           4934.93
     UNSATURATED ZONE =       -1208568.43       UNSATURATED ZONE =         -14155.75
       SATURATED ZONE =        -279524.91         SATURATED ZONE =          -6063.30

 OVERALL BUDGET ERROR =          -2036.66           BUDGET ERROR =            -26.15


  PERCENT DISCREPANCY =             -0.05    PERCENT DISCREPANCY =             -0.14



1
 SUMMARY VOLUMETRIC BUDGET FOR GSFLOW 
 DATE: 12 16 1980              CUMULATIVE TIME STEP:      77
 MODFLOW STRESS PERIOD      2     CURRENT TIME STEP:      77     ITERATIONS:       5

 -----------------------------------------------------------------------------------

   CUMULATIVE VOLUMES               L**3   RATES FOR THIS TIME STEP           L**3/T
   ------------------                      ------------------------

                                     IN                                         IN
                                     --                                         --
        PRECIPITATION =        4284363.63          PRECIPITATION =                  
           STREAMFLOW =                               STREAMFLOW =                  
     GW BOUNDARY FLOW =                         GW BOUNDARY FLOW =                  


                                    OUT                                        OUT
                                    ---                                        ---
   EVAPOTRANSPIRATION =        1539450.47     EVAPOTRANSPIRATION =          33883.38
           STREAMFLOW =         744853.46             STREAMFLOW =          25078.32
     GW BOUNDARY FLOW =          55766.54       GW BOUNDARY FLOW =            725.93

   INFLOWS - OUTFLOWS =        1944293.16     INFLOWS - OUTFLOWS =         -59687.63
             --------                                   --------

 TOTAL STORAGE CHANGE =        1946501.32         STORAGE CHANGE =         -59660.95
       --------------                             --------------
         LAND SURFACE =        2023939.67           LAND SURFACE =        -129021.52
            SOIL ZONE =        1540827.45              SOIL ZONE =          82756.73
     UNSATURATED ZONE =       -1297731.18       UNSATURATED ZONE =          -8855.46
       SATURATED ZONE =        -320534.62         SATURATED ZONE =          -4540.71

 OVERALL BUDGET ERROR =          -2208.16           BUDGET ERROR =            -26.67


  PERCENT DISCREPANCY =             -0.05    PERCENT DISCREPANCY =             -0.04



1
 SUMMARY VOLUMETRIC BUDGET FOR GSFLOW 
 DATE: 12 23 1980              CUMULATIVE TIME STEP:      84
 MODFLOW STRESS PERIOD      2     CURRENT TIME STEP:      84     ITERATIONS:       6

 -----------------------------------------------------------------------------------

   CUMULATIVE VOLUMES               L**3   RATES FOR THIS TIME STEP           L**3/T
   ------------------                      ------------------------

                                     IN                                         IN
                                     --                                         --
        PRECIPITATION =        4516757.54          PRECIPITATION =                  
           STREAMFLOW =                               STREAMFLOW =                  
     GW BOUNDARY FLOW =                         GW BOUNDARY FLOW =                  


                                    OUT                                        OUT
                                    ---                                        ---
   EVAPOTRANSPIRATION =        1745491.03     EVAPOTRANSPIRATION =          35140.32
           STREAMFLOW =         972786.84             STREAMFLOW =          30336.48
     GW BOUNDARY FLOW =          60858.90       GW BOUNDARY FLOW =            728.08

   INFLOWS - OUTFLOWS =        1737620.76     INFLOWS - OUTFLOWS =         -66204.87
             --------                                   --------

 TOTAL STORAGE CHANGE =        1739980.53         STORAGE CHANGE =         -66187.01
       --------------                             --------------
         LAND SURFACE =        1433268.50           LAND SURFACE =         -48191.47
            SOIL ZONE =        1992093.03              SOIL ZONE =          -8127.96
     UNSATURATED ZONE =       -1336292.00       UNSATURATED ZONE =          -5189.71
       SATURATED ZONE =        -349088.99         SATURATED ZONE =          -4677.86

 OVERALL BUDGET ERROR =          -2359.77           BUDGET ERROR =            -17.87


  PERCENT DISCREPANCY =             -0.05    PERCENT DISCREPANCY =             -0.03



1
 SUMMARY VOLUMETRIC BUDGET FOR GSFLOW 
 DATE: 12 30 1980              CUMULATIVE TIME STEP:      91
 MODFLOW STRESS PERIOD      2     CURRENT TIME STEP:      91     ITERATIONS:       7

 -----------------------------------------------------------------------------------

   CUMULATIVE VOLUMES               L**3   RATES FOR THIS TIME STEP           L**3/T
   ------------------                      ------------------------

                                     IN                                         IN
                                     --                                         --
        PRECIPITATION =        4516757.54          PRECIPITATION =                  
           STREAMFLOW =                               STREAMFLOW =                  
     GW BOUNDARY FLOW =                         GW BOUNDARY FLOW =                  


                                    OUT                                        OUT
                                    ---                                        ---
   EVAPOTRANSPIRATION =        2106123.54     EVAPOTRANSPIRATION =          45887.78
           STREAMFLOW =        1219131.28             STREAMFLOW =          27191.52
     GW BOUNDARY FLOW =          65959.86       GW BOUNDARY FLOW =            728.61

   INFLOWS - OUTFLOWS =        1125542.86     INFLOWS - OUTFLOWS =         -73807.91
             --------                                   --------

 TOTAL STORAGE CHANGE =        1128001.01         STORAGE CHANGE =         -73796.69
       --------------                             --------------
         LAND SURFACE =         641159.81           LAND SURFACE =         -40370.17
            SOIL ZONE =        2202787.52              SOIL ZONE =         -24591.27
     UNSATURATED ZONE =       -1343083.66       UNSATURATED ZONE =          -5037.62
       SATURATED ZONE =        -372862.67         SATURATED ZONE =          -3797.62

 OVERALL BUDGET ERROR =          -2458.15           BUDGET ERROR =            -11.22


  PERCENT DISCREPANCY =             -0.05    PERCENT DISCREPANCY =             -0.02



1
 SUMMARY VOLUMETRIC BUDGET FOR GSFLOW 
 DATE: 01 06 1981              CUMULATIVE TIME STEP:      98
 MODFLOW STRESS PERIOD      2     CURRENT TIME STEP:      98     ITERATIONS:       6

 -----------------------------------------------------------------------------------

   CUMULATIVE VOLUMES               L**3   RATES FOR THIS TIME STEP           L**3/T
   ------------------                      ------------------------

                                     IN                                         IN
                                     --                                         --
        PRECIPITATION =        5004445.43          PRECIPITATION =                  
           STREAMFLOW =                               STREAMFLOW =                  
     GW BOUNDARY FLOW =                         GW BOUNDARY FLOW =                  


                                    OUT                                        OUT
                                    ---                                        ---
   EVAPOTRANSPIRATION =        2334048.29     EVAPOTRANSPIRATION =          21388.78
           STREAMFLOW =        1373593.00             STREAMFLOW =          21254.40
     GW BOUNDARY FLOW =          71053.46       GW BOUNDARY FLOW =            727.14

   INFLOWS - OUTFLOWS =        1225750.69     INFLOWS - OUTFLOWS =         -43370.32
             --------                                   --------

 TOTAL STORAGE CHANGE =        1228299.19         STORAGE CHANGE =         -43356.80
       --------------                             --------------
         LAND SURFACE =         837080.27           LAND SURFACE =         -30417.06
            SOIL ZONE =        2209807.44              SOIL ZONE =           2752.77
     UNSATURATED ZONE =       -1408000.70       UNSATURATED ZONE =          -9834.32
       SATURATED ZONE =        -410587.82         SATURATED ZONE =          -5858.19

 OVERALL BUDGET ERROR =          -2548.50           BUDGET ERROR =            -13.52


  PERCENT DISCREPANCY =             -0.05    PERCENT DISCREPANCY =             -0.03



1
 SUMMARY VOLUMETRIC BUDGET FOR GSFLOW 
 DATE: 01 13 1981              CUMULATIVE TIME STEP:     105
 MODFLOW STRESS PERIOD      2     CURRENT TIME STEP:     105     ITERATIONS:       6

 -----------------------------------------------------------------------------------

   CUMULATIVE VOLUMES               L**3   RATES FOR THIS TIME STEP           L**3/T
   ------------------                      ------------------------

                                     IN                                         IN
                                     --                                         --
        PRECIPITATION =        5004445.43          PRECIPITATION =                  
           STREAMFLOW =                               STREAMFLOW =                  
     GW BOUNDARY FLOW =                         GW BOUNDARY FLOW =                  


                                    OUT                                        OUT
                                    ---                                        ---
   EVAPOTRANSPIRATION =        2551558.34     EVAPOTRANSPIRATION =          44453.92
           STREAMFLOW =        1521683.43             STREAMFLOW =          20031.22
     GW BOUNDARY FLOW =          76141.17       GW BOUNDARY FLOW =            726.57

   INFLOWS - OUTFLOWS =         855062.50     INFLOWS - OUTFLOWS =         -65211.71
             --------                                   --------

 TOTAL STORAGE CHANGE =         857711.87         STORAGE CHANGE =         -65197.30
       --------------                             --------------
         LAND SURFACE =         626702.00           LAND SURFACE =         -38991.59
            SOIL ZONE =        2156445.06              SOIL ZONE =         -10565.61
     UNSATURATED ZONE =       -1471312.94       UNSATURATED ZONE =          -9100.43
       SATURATED ZONE =        -454122.25         SATURATED ZONE =          -6539.66

 OVERALL BUDGET ERROR =          -2649.37           BUDGET ERROR =            -14.41


  PERCENT DISCREPANCY =             -0.05    PERCENT DISCREPANCY =             -0.02



1
 SUMMARY VOLUMETRIC BUDGET FOR GSFLOW 
 DATE: 01 20 1981              CUMULATIVE TIME STEP:     112
 MODFLOW STRESS PERIOD      2     CURRENT TIME STEP:     112     ITERATIONS:       6

 -----------------------------------------------------------------------------------

   CUMULATIVE VOLUMES               L**3   RATES FOR THIS TIME STEP           L**3/T
   ------------------                      ------------------------

                                     IN                                         IN
                                     --                                         --
        PRECIPITATION =        5170466.84          PRECIPITATION =          41505.35
           STREAMFLOW =                               STREAMFLOW =                  
     GW BOUNDARY FLOW =                         GW BOUNDARY FLOW =                  


                                    OUT                                        OUT
                                    ---                                        ---
   EVAPOTRANSPIRATION =        2833835.76     EVAPOTRANSPIRATION =          35769.99
           STREAMFLOW =        1664512.55             STREAMFLOW =          20175.71
     GW BOUNDARY FLOW =          81226.32       GW BOUNDARY FLOW =            726.39

   INFLOWS - OUTFLOWS =         590892.21     INFLOWS - OUTFLOWS =         -15166.74
             --------                                   --------

 TOTAL STORAGE CHANGE =         593639.50         STORAGE CHANGE =         -15153.02
       --------------                             --------------
         LAND SURFACE =         436285.42           LAND SURFACE =           4326.68
            SOIL ZONE =        2159126.33              SOIL ZONE =         -11134.09
     UNSATURATED ZONE =       -1501272.92       UNSATURATED ZONE =          -1583.64
       SATURATED ZONE =        -500499.33         SATURATED ZONE =          -6761.97

 OVERALL BUDGET ERROR =          -2747.29           BUDGET ERROR =            -13.72


  PERCENT DISCREPANCY =             -0.05    PERCENT DISCREPANCY =             -0.02



1
 SUMMARY VOLUMETRIC BUDGET FOR GSFLOW 
 DATE: 01 27 1981              CUMULATIVE TIME STEP:     119
 MODFLOW STRESS PERIOD      2     CURRENT TIME STEP:     119     ITERATIONS:       6

 -----------------------------------------------------------------------------------

   CUMULATIVE VOLUMES               L**3   RATES FOR THIS TIME STEP           L**3/T
   ------------------                      ------------------------

                                     IN                                         IN
                                     --                                         --
        PRECIPITATION =        8646540.08          PRECIPITATION =        2936503.63
           STREAMFLOW =                               STREAMFLOW =                  
     GW BOUNDARY FLOW =                         GW BOUNDARY FLOW =                  


                                    OUT                                        OUT
                                    ---                                        ---
   EVAPOTRANSPIRATION =        3067492.19     EVAPOTRANSPIRATION =          13120.97
           STREAMFLOW =        1810236.37             STREAMFLOW =          18675.44
     GW BOUNDARY FLOW =          86310.77       GW BOUNDARY FLOW =            726.11

   INFLOWS - OUTFLOWS =        3682500.75     INFLOWS - OUTFLOWS =        2903981.11
             --------                                   --------

 TOTAL STORAGE CHANGE =        3685319.39         STORAGE CHANGE =        2903990.88
       --------------                             --------------
         LAND SURFACE =        3540180.85           LAND SURFACE =        2923352.24
            SOIL ZONE =        2180648.71              SOIL ZONE =          -7733.85
     UNSATURATED ZONE =       -1488940.14       UNSATURATED ZONE =          -4648.82
       SATURATED ZONE =        -546570.04         SATURATED ZONE =          -6978.69

 OVERALL BUDGET ERROR =          -2818.64           BUDGET ERROR =             -9.76


  PERCENT DISCREPANCY =             -0.03    PERCENT DISCREPANCY =             -0.00



1
 SUMMARY VOLUMETRIC BUDGET FOR GSFLOW 
 DATE: 02 03 1981              CUMULATIVE TIME STEP:     126
 MODFLOW STRESS PERIOD      2     CURRENT TIME STEP:     126     ITERATIONS:       7

 -----------------------------------------------------------------------------------

   CUMULATIVE VOLUMES               L**3   RATES FOR THIS TIME STEP           L**3/T
   ------------------                      ------------------------

                                     IN                                         IN
                                     --                                         --
        PRECIPITATION =        1.1739D+07          PRECIPITATION =                  
           STREAMFLOW =                               STREAMFLOW =                  
     GW BOUNDARY FLOW =                         GW BOUNDARY FLOW =                  


                                    OUT                                        OUT
                                    ---                                        ---
   EVAPOTRANSPIRATION =        3104005.23     EVAPOTRANSPIRATION =           6975.48
           STREAMFLOW =        1936807.15             STREAMFLOW =          17956.08
     GW BOUNDARY FLOW =          91392.20       GW BOUNDARY FLOW =            725.84

   INFLOWS - OUTFLOWS =        6606484.19     INFLOWS - OUTFLOWS =         -25657.41
             --------                                   --------

 TOTAL STORAGE CHANGE =        6609363.31         STORAGE CHANGE =         -25649.03
       --------------                             --------------
         LAND SURFACE =        6595816.50           LAND SURFACE =          -6975.48
            SOIL ZONE =        2169467.95              SOIL ZONE =            476.63
     UNSATURATED ZONE =       -1556610.59       UNSATURATED ZONE =         -11275.99
       SATURATED ZONE =        -599310.55         SATURATED ZONE =          -7874.19

 OVERALL BUDGET ERROR =          -2879.12           BUDGET ERROR =             -8.38


  PERCENT DISCREPANCY =             -0.02    PERCENT DISCREPANCY =             -0.03



1
 SUMMARY VOLUMETRIC BUDGET FOR GSFLOW 
 DATE: 02 10 1981              CUMULATIVE TIME STEP:     133
 MODFLOW STRESS PERIOD      2     CURRENT TIME STEP:     133     ITERATIONS:       5

 -----------------------------------------------------------------------------------

   CUMULATIVE VOLUMES               L**3   RATES FOR THIS TIME STEP           L**3/T
   ------------------                      ------------------------

                                     IN                                         IN
                                     --                                         --
        PRECIPITATION =        1.1838D+07          PRECIPITATION =                  
           STREAMFLOW =                               STREAMFLOW =                  
     GW BOUNDARY FLOW =                         GW BOUNDARY FLOW =                  


                                    OUT                                        OUT
                                    ---                                        ---
   EVAPOTRANSPIRATION =        3229406.29     EVAPOTRANSPIRATION =          32880.06
           STREAMFLOW =        2062705.63             STREAMFLOW =          18003.71
     GW BOUNDARY FLOW =          96473.14       GW BOUNDARY FLOW =            725.84

   INFLOWS - OUTFLOWS =        6449668.21     INFLOWS - OUTFLOWS =         -51609.61
             --------                                   --------

 TOTAL STORAGE CHANGE =        6452642.42         STORAGE CHANGE =         -51591.50
       --------------                             --------------
         LAND SURFACE =        6569979.95           LAND SURFACE =         -32880.06
            SOIL ZONE =        2173817.56              SOIL ZONE =            610.09
     UNSATURATED ZONE =       -1633453.01       UNSATURATED ZONE =         -10637.38
       SATURATED ZONE =        -657702.08         SATURATED ZONE =          -8684.16

 OVERALL BUDGET ERROR =          -2974.20           BUDGET ERROR =            -18.12


  PERCENT DISCREPANCY =             -0.03    PERCENT DISCREPANCY =             -0.04



1
 SUMMARY VOLUMETRIC BUDGET FOR GSFLOW 
 DATE: 02 17 1981              CUMULATIVE TIME STEP:     140
 MODFLOW STRESS PERIOD      2     CURRENT TIME STEP:     140     ITERATIONS:       9

 -----------------------------------------------------------------------------------

   CUMULATIVE VOLUMES               L**3   RATES FOR THIS TIME STEP           L**3/T
   ------------------                      ------------------------

                                     IN                                         IN
                                     --                                         --
        PRECIPITATION =        1.2765D+07          PRECIPITATION =          68929.28
           STREAMFLOW =                               STREAMFLOW =                  
     GW BOUNDARY FLOW =                         GW BOUNDARY FLOW =                  


                                    OUT                                        OUT
                                    ---                                        ---
   EVAPOTRANSPIRATION =        3567504.09     EVAPOTRANSPIRATION =          68607.56
           STREAMFLOW =        2606501.29             STREAMFLOW =         125274.41
     GW BOUNDARY FLOW =         101582.74       GW BOUNDARY FLOW =            734.51

   INFLOWS - OUTFLOWS =        6489380.98     INFLOWS - OUTFLOWS =        -125687.20
             --------                                   --------

 TOTAL STORAGE CHANGE =        6492459.46         STORAGE CHANGE =        -125674.51
       --------------                             --------------
         LAND SURFACE =        5590061.12           LAND SURFACE =        -278671.93
            SOIL ZONE =        2960926.21              SOIL ZONE =          71922.35
     UNSATURATED ZONE =       -1384006.21       UNSATURATED ZONE =          78480.96
       SATURATED ZONE =        -674521.65         SATURATED ZONE =           2594.11

 OVERALL BUDGET ERROR =          -3078.48           BUDGET ERROR =            -12.69


  PERCENT DISCREPANCY =             -0.02    PERCENT DISCREPANCY =             -0.01



1
 SUMMARY VOLUMETRIC BUDGET FOR GSFLOW 
 DATE: 02 24 1981              CUMULATIVE TIME STEP:     147
 MODFLOW STRESS PERIOD      2     CURRENT TIME STEP:     147     ITERATIONS:       9

 -----------------------------------------------------------------------------------

   CUMULATIVE VOLUMES               L**3   RATES FOR THIS TIME STEP           L**3/T
   ------------------                      ------------------------

                                     IN                                         IN
                                     --                                         --
        PRECIPITATION =        1.3179D+07          PRECIPITATION =         344646.37
           STREAMFLOW =                               STREAMFLOW =                  
     GW BOUNDARY FLOW =                         GW BOUNDARY FLOW =                  


                                    OUT                                        OUT
                                    ---                                        ---
   EVAPOTRANSPIRATION =        3908825.68     EVAPOTRANSPIRATION =          18832.76
           STREAMFLOW =        3164290.45             STREAMFLOW =          51933.07
     GW BOUNDARY FLOW =         106717.60       GW BOUNDARY FLOW =            732.11

   INFLOWS - OUTFLOWS =        5998711.03     INFLOWS - OUTFLOWS =         273148.42
             --------                                   --------

 TOTAL STORAGE CHANGE =        6001815.33         STORAGE CHANGE =         273148.12
       --------------                             --------------
         LAND SURFACE =        4984244.22           LAND SURFACE =         286368.61
            SOIL ZONE =        2695807.42              SOIL ZONE =         -43411.25
     UNSATURATED ZONE =       -1029581.88       UNSATURATED ZONE =          27568.24
       SATURATED ZONE =        -648654.43         SATURATED ZONE =           2622.52

 OVERALL BUDGET ERROR =          -3104.30           BUDGET ERROR =              0.31


  PERCENT DISCREPANCY =             -0.02    PERCENT DISCREPANCY =              0.00



1
 SUMMARY VOLUMETRIC BUDGET FOR GSFLOW 
 DATE: 03 03 1981              CUMULATIVE TIME STEP:     154
 MODFLOW STRESS PERIOD      2     CURRENT TIME STEP:     154     ITERATIONS:       8

 -----------------------------------------------------------------------------------

   CUMULATIVE VOLUMES               L**3   RATES FOR THIS TIME STEP           L**3/T
   ------------------                      ------------------------

                                     IN                                         IN
                                     --                                         --
        PRECIPITATION =        1.3447D+07          PRECIPITATION =                  
           STREAMFLOW =                               STREAMFLOW =                  
     GW BOUNDARY FLOW =                         GW BOUNDARY FLOW =                  


                                    OUT                                        OUT
                                    ---                                        ---
   EVAPOTRANSPIRATION =        4069508.41     EVAPOTRANSPIRATION =          45353.75
           STREAMFLOW =        3387958.20             STREAMFLOW =          27771.66
     GW BOUNDARY FLOW =         111825.45       GW BOUNDARY FLOW =            728.47

   INFLOWS - OUTFLOWS =        5877310.98     INFLOWS - OUTFLOWS =         -73853.88
             --------                                   --------

 TOTAL STORAGE CHANGE =        5880373.08         STORAGE CHANGE =         -73858.86
       --------------                             --------------
         LAND SURFACE =        5068137.31           LAND SURFACE =         -66041.98
            SOIL ZONE =        2487689.49              SOIL ZONE =           2898.15
     UNSATURATED ZONE =       -1024732.56       UNSATURATED ZONE =          -9100.03
       SATURATED ZONE =        -650721.15         SATURATED ZONE =          -1615.00

 OVERALL BUDGET ERROR =          -3062.10           BUDGET ERROR =              4.99


  PERCENT DISCREPANCY =             -0.02    PERCENT DISCREPANCY =              0.01



1
 SUMMARY VOLUMETRIC BUDGET FOR GSFLOW 
 DATE: 03 10 1981              CUMULATIVE TIME STEP:     161
 MODFLOW STRESS PERIOD      2     CURRENT TIME STEP:     161     ITERATIONS:       7

 -----------------------------------------------------------------------------------

   CUMULATIVE VOLUMES               L**3   RATES FOR THIS TIME STEP           L**3/T
   ------------------                      ------------------------

                                     IN                                         IN
                                     --                                         --
        PRECIPITATION =        1.3493D+07          PRECIPITATION =                  
           STREAMFLOW =                               STREAMFLOW =                  
     GW BOUNDARY FLOW =                         GW BOUNDARY FLOW =                  


                                    OUT                                        OUT
                                    ---                                        ---
   EVAPOTRANSPIRATION =        4415297.99     EVAPOTRANSPIRATION =          72811.00
           STREAMFLOW =        3623660.43             STREAMFLOW =          43495.42
     GW BOUNDARY FLOW =         116924.45       GW BOUNDARY FLOW =            729.25

   INFLOWS - OUTFLOWS =        5337058.29     INFLOWS - OUTFLOWS =        -117035.67
             --------                                   --------

 TOTAL STORAGE CHANGE =        5340107.56         STORAGE CHANGE =        -117036.97
       --------------                             --------------
         LAND SURFACE =        4391652.97           LAND SURFACE =        -169089.79
            SOIL ZONE =        2600938.53              SOIL ZONE =          28987.76
     UNSATURATED ZONE =        -991239.47       UNSATURATED ZONE =          23506.44
       SATURATED ZONE =        -661244.47         SATURATED ZONE =           -441.39

 OVERALL BUDGET ERROR =          -3049.27           BUDGET ERROR =              1.30


  PERCENT DISCREPANCY =             -0.02    PERCENT DISCREPANCY =              0.00



1
 SUMMARY VOLUMETRIC BUDGET FOR GSFLOW 
 DATE: 03 17 1981              CUMULATIVE TIME STEP:     168
 MODFLOW STRESS PERIOD      2     CURRENT TIME STEP:     168     ITERATIONS:       7

 -----------------------------------------------------------------------------------

   CUMULATIVE VOLUMES               L**3   RATES FOR THIS TIME STEP           L**3/T
   ------------------                      ------------------------

                                     IN                                         IN
                                     --                                         --
        PRECIPITATION =        1.3744D+07          PRECIPITATION =                  
           STREAMFLOW =                               STREAMFLOW =                  
     GW BOUNDARY FLOW =                         GW BOUNDARY FLOW =                  


                                    OUT                                        OUT
                                    ---                                        ---
   EVAPOTRANSPIRATION =        4783707.74     EVAPOTRANSPIRATION =          40234.36
           STREAMFLOW =        3850207.69             STREAMFLOW =          24138.37
     GW BOUNDARY FLOW =         122025.40       GW BOUNDARY FLOW =            727.94

   INFLOWS - OUTFLOWS =        4988550.05     INFLOWS - OUTFLOWS =         -65100.68
             --------                                   --------

 TOTAL STORAGE CHANGE =        4991575.75         STORAGE CHANGE =         -65096.54
       --------------                             --------------
         LAND SURFACE =        4202420.68           LAND SURFACE =         -39897.13
            SOIL ZONE =        2436428.72              SOIL ZONE =          -5352.53
     UNSATURATED ZONE =        -968991.77       UNSATURATED ZONE =         -15655.46
       SATURATED ZONE =        -678281.87         SATURATED ZONE =          -4191.43

 OVERALL BUDGET ERROR =          -3025.71           BUDGET ERROR =             -4.13


  PERCENT DISCREPANCY =             -0.02    PERCENT DISCREPANCY =             -0.01



1
 SUMMARY VOLUMETRIC BUDGET FOR GSFLOW 
 DATE: 03 24 1981              CUMULATIVE TIME STEP:     175
 MODFLOW STRESS PERIOD      2     CURRENT TIME STEP:     175     ITERATIONS:       6

 -----------------------------------------------------------------------------------

   CUMULATIVE VOLUMES               L**3   RATES FOR THIS TIME STEP           L**3/T
   ------------------                      ------------------------

                                     IN                                         IN
                                     --                                         --
        PRECIPITATION =        1.4367D+07          PRECIPITATION =                  
           STREAMFLOW =                               STREAMFLOW =                  
     GW BOUNDARY FLOW =                         GW BOUNDARY FLOW =                  


                                    OUT                                        OUT
                                    ---                                        ---
   EVAPOTRANSPIRATION =        5139485.08     EVAPOTRANSPIRATION =          87428.11
           STREAMFLOW =        4026211.06             STREAMFLOW =          26819.24
     GW BOUNDARY FLOW =         127117.57       GW BOUNDARY FLOW =            727.41

   INFLOWS - OUTFLOWS =        5073931.80     INFLOWS - OUTFLOWS =        -114974.76
             --------                                   --------

 TOTAL STORAGE CHANGE =        5076991.16         STORAGE CHANGE =        -114972.08
       --------------                             --------------
         LAND SURFACE =        4477696.13           LAND SURFACE =         -65035.10
            SOIL ZONE =        2349187.64              SOIL ZONE =         -41065.54
     UNSATURATED ZONE =       -1037700.15       UNSATURATED ZONE =          -3819.08
       SATURATED ZONE =        -712192.46         SATURATED ZONE =          -5052.36

 OVERALL BUDGET ERROR =          -3059.36           BUDGET ERROR =             -2.67


  PERCENT DISCREPANCY =             -0.02    PERCENT DISCREPANCY =             -0.00



1
 SUMMARY VOLUMETRIC BUDGET FOR GSFLOW 
 DATE: 03 31 1981              CUMULATIVE TIME STEP:     182
 MODFLOW STRESS PERIOD      2     CURRENT TIME STEP:     182     ITERATIONS:       8

 -----------------------------------------------------------------------------------

   CUMULATIVE VOLUMES               L**3   RATES FOR THIS TIME STEP           L**3/T
   ------------------                      ------------------------

                                     IN                                         IN
                                     --                                         --
        PRECIPITATION =        1.5777D+07          PRECIPITATION =                  
           STREAMFLOW =                               STREAMFLOW =                  
     GW BOUNDARY FLOW =                         GW BOUNDARY FLOW =                  


                                    OUT                                        OUT
                                    ---                                        ---
   EVAPOTRANSPIRATION =        5569422.47     EVAPOTRANSPIRATION =          54090.27
           STREAMFLOW =        4533650.50             STREAMFLOW =          37016.52
     GW BOUNDARY FLOW =         132237.96       GW BOUNDARY FLOW =            730.25

   INFLOWS - OUTFLOWS =        5541437.05     INFLOWS - OUTFLOWS =         -91837.04
             --------                                   --------

 TOTAL STORAGE CHANGE =        5544489.76         STORAGE CHANGE =         -91846.23
       --------------                             --------------
         LAND SURFACE =        4494242.73           LAND SURFACE =         -55488.75
            SOIL ZONE =        2545646.84              SOIL ZONE =         -41648.35
     UNSATURATED ZONE =        -790196.31       UNSATURATED ZONE =           6336.38
       SATURATED ZONE =        -705203.50         SATURATED ZONE =          -1045.51

 OVERALL BUDGET ERROR =          -3052.70           BUDGET ERROR =              9.19


  PERCENT DISCREPANCY =             -0.02    PERCENT DISCREPANCY =              0.01



1
 SUMMARY VOLUMETRIC BUDGET FOR GSFLOW 
 DATE: 04 07 1981              CUMULATIVE TIME STEP:     189
 MODFLOW STRESS PERIOD      2     CURRENT TIME STEP:     189     ITERATIONS:       7

 -----------------------------------------------------------------------------------

   CUMULATIVE VOLUMES               L**3   RATES FOR THIS TIME STEP           L**3/T
   ------------------                      ------------------------

                                     IN                                         IN
                                     --                                         --
        PRECIPITATION =        1.6121D+07          PRECIPITATION =                  
           STREAMFLOW =                               STREAMFLOW =                  
     GW BOUNDARY FLOW =                         GW BOUNDARY FLOW =                  


                                    OUT                                        OUT
                                    ---                                        ---
   EVAPOTRANSPIRATION =        6195488.71     EVAPOTRANSPIRATION =         103845.38
           STREAMFLOW =        4851157.15             STREAMFLOW =          43280.13
     GW BOUNDARY FLOW =         137349.44       GW BOUNDARY FLOW =            730.44

   INFLOWS - OUTFLOWS =        4937472.31     INFLOWS - OUTFLOWS =        -147855.95
             --------                                   --------

 TOTAL STORAGE CHANGE =        4940483.26         STORAGE CHANGE =        -147862.54
       --------------                             --------------
         LAND SURFACE =        3870170.37           LAND SURFACE =        -138668.80
            SOIL ZONE =        2477093.44              SOIL ZONE =         -20329.23
     UNSATURATED ZONE =        -704107.61       UNSATURATED ZONE =          11298.39
       SATURATED ZONE =        -702672.94         SATURATED ZONE =           -162.90

 OVERALL BUDGET ERROR =          -3010.95           BUDGET ERROR =              6.58


  PERCENT DISCREPANCY =             -0.02    PERCENT DISCREPANCY =              0.00



1
 SUMMARY VOLUMETRIC BUDGET FOR GSFLOW 
 DATE: 04 14 1981              CUMULATIVE TIME STEP:     196
 MODFLOW STRESS PERIOD      2     CURRENT TIME STEP:     196     ITERATIONS:       9

 -----------------------------------------------------------------------------------

   CUMULATIVE VOLUMES               L**3   RATES FOR THIS TIME STEP           L**3/T
   ------------------                      ------------------------

                                     IN                                         IN
                                     --                                         --
        PRECIPITATION =        1.6121D+07          PRECIPITATION =                  
           STREAMFLOW =                               STREAMFLOW =                  
     GW BOUNDARY FLOW =                         GW BOUNDARY FLOW =                  


                                    OUT                                        OUT
                                    ---                                        ---
   EVAPOTRANSPIRATION =        7106178.23     EVAPOTRANSPIRATION =         191911.71
           STREAMFLOW =        5177248.14             STREAMFLOW =          55255.96
     GW BOUNDARY FLOW =         142461.44       GW BOUNDARY FLOW =            730.39

   INFLOWS - OUTFLOWS =        3695579.80     INFLOWS - OUTFLOWS =        -247898.06
             --------                                   --------

 TOTAL STORAGE CHANGE =        3698578.54         STORAGE CHANGE =        -247897.72
       --------------                             --------------
         LAND SURFACE =        2621455.97           LAND SURFACE =        -253007.68
            SOIL ZONE =        2385472.36              SOIL ZONE =         -16856.05
     UNSATURATED ZONE =        -611204.09       UNSATURATED ZONE =          19903.41
       SATURATED ZONE =        -697145.70         SATURATED ZONE =           2062.60

 OVERALL BUDGET ERROR =          -2998.74           BUDGET ERROR =             -0.34


  PERCENT DISCREPANCY =             -0.02    PERCENT DISCREPANCY =             -0.00



1
 SUMMARY VOLUMETRIC BUDGET FOR GSFLOW 
 DATE: 04 21 1981              CUMULATIVE TIME STEP:     203
 MODFLOW STRESS PERIOD      2     CURRENT TIME STEP:     203     ITERATIONS:       9

 -----------------------------------------------------------------------------------

   CUMULATIVE VOLUMES               L**3   RATES FOR THIS TIME STEP           L**3/T
   ------------------                      ------------------------

                                     IN                                         IN
                                     --                                         --
        PRECIPITATION =        1.6310D+07          PRECIPITATION =                  
           STREAMFLOW =                               STREAMFLOW =                  
     GW BOUNDARY FLOW =                         GW BOUNDARY FLOW =                  


                                    OUT                                        OUT
                                    ---                                        ---
   EVAPOTRANSPIRATION =        8176122.67     EVAPOTRANSPIRATION =         151398.78
           STREAMFLOW =        5515167.79             STREAMFLOW =          45617.77
     GW BOUNDARY FLOW =         147568.63       GW BOUNDARY FLOW =            729.07

   INFLOWS - OUTFLOWS =        2471383.55     INFLOWS - OUTFLOWS =        -197745.62
             --------                                   --------

 TOTAL STORAGE CHANGE =        2474372.26         STORAGE CHANGE =        -197749.90
       --------------                             --------------
         LAND SURFACE =        1440926.25           LAND SURFACE =        -121359.42
            SOIL ZONE =        2205958.23              SOIL ZONE =         -96257.14
     UNSATURATED ZONE =        -491409.08       UNSATURATED ZONE =          17071.13
       SATURATED ZONE =        -681103.13         SATURATED ZONE =           2795.53

 OVERALL BUDGET ERROR =          -2988.71           BUDGET ERROR =              4.28


  PERCENT DISCREPANCY =             -0.02    PERCENT DISCREPANCY =              0.00



1
 SUMMARY VOLUMETRIC BUDGET FOR GSFLOW 
 DATE: 04 28 1981              CUMULATIVE TIME STEP:     210
 MODFLOW STRESS PERIOD      2     CURRENT TIME STEP:     210     ITERATIONS:       9

 -----------------------------------------------------------------------------------

   CUMULATIVE VOLUMES               L**3   RATES FOR THIS TIME STEP           L**3/T
   ------------------                      ------------------------

                                     IN                                         IN
                                     --                                         --
        PRECIPITATION =        1.6515D+07          PRECIPITATION =                  
           STREAMFLOW =                               STREAMFLOW =                  
     GW BOUNDARY FLOW =                         GW BOUNDARY FLOW =                  


                                    OUT                                        OUT
                                    ---                                        ---
   EVAPOTRANSPIRATION =        9416138.01     EVAPOTRANSPIRATION =         200814.98
           STREAMFLOW =        5727251.37             STREAMFLOW =          24726.62
     GW BOUNDARY FLOW =         152660.78       GW BOUNDARY FLOW =            726.34

   INFLOWS - OUTFLOWS =        1219382.73     INFLOWS - OUTFLOWS =        -226267.94
             --------                                   --------

 TOTAL STORAGE CHANGE =        1222350.60         STORAGE CHANGE =        -226269.41
       --------------                             --------------
         LAND SURFACE =         691530.96           LAND SURFACE =         -83509.90
            SOIL ZONE =        1694419.41              SOIL ZONE =        -138828.97
     UNSATURATED ZONE =        -489481.51       UNSATURATED ZONE =          -3902.98
       SATURATED ZONE =        -674118.26         SATURATED ZONE =            -27.57

 OVERALL BUDGET ERROR =          -2967.87           BUDGET ERROR =              1.47


  PERCENT DISCREPANCY =             -0.02    PERCENT DISCREPANCY =              0.00



1
 SUMMARY VOLUMETRIC BUDGET FOR GSFLOW 
 DATE: 05 05 1981              CUMULATIVE TIME STEP:     217
 MODFLOW STRESS PERIOD      2     CURRENT TIME STEP:     217     ITERATIONS:       9

 -----------------------------------------------------------------------------------

   CUMULATIVE VOLUMES               L**3   RATES FOR THIS TIME STEP           L**3/T
   ------------------                      ------------------------

                                     IN                                         IN
                                     --                                         --
        PRECIPITATION =        1.6515D+07          PRECIPITATION =                  
           STREAMFLOW =                               STREAMFLOW =                  
     GW BOUNDARY FLOW =                         GW BOUNDARY FLOW =                  


                                    OUT                                        OUT
                                    ---                                        ---
   EVAPOTRANSPIRATION =        1.0269D+07     EVAPOTRANSPIRATION =          47792.41
           STREAMFLOW =        5833264.83             STREAMFLOW =          10826.19
     GW BOUNDARY FLOW =         157736.36       GW BOUNDARY FLOW =            724.19

   INFLOWS - OUTFLOWS =         255796.03     INFLOWS - OUTFLOWS =         -59342.79
             --------                                   --------

 TOTAL STORAGE CHANGE =         258788.39         STORAGE CHANGE =         -59339.12
       --------------                             --------------
         LAND SURFACE =         347350.76           LAND SURFACE =         -17502.06
            SOIL ZONE =        1185097.95              SOIL ZONE =         -22923.61
     UNSATURATED ZONE =        -582357.25       UNSATURATED ZONE =         -15127.48
       SATURATED ZONE =        -691303.06         SATURATED ZONE =          -3785.97

 OVERALL BUDGET ERROR =          -2992.35           BUDGET ERROR =             -3.68


  PERCENT DISCREPANCY =             -0.02    PERCENT DISCREPANCY =             -0.01



1
 SUMMARY VOLUMETRIC BUDGET FOR GSFLOW 
 DATE: 05 12 1981              CUMULATIVE TIME STEP:     224
 MODFLOW STRESS PERIOD      2     CURRENT TIME STEP:     224     ITERATIONS:       9

 -----------------------------------------------------------------------------------

   CUMULATIVE VOLUMES               L**3   RATES FOR THIS TIME STEP           L**3/T
   ------------------                      ------------------------

                                     IN                                         IN
                                     --                                         --
        PRECIPITATION =        1.6515D+07          PRECIPITATION =                  
           STREAMFLOW =                               STREAMFLOW =                  
     GW BOUNDARY FLOW =                         GW BOUNDARY FLOW =                  


                                    OUT                                        OUT
                                    ---                                        ---
   EVAPOTRANSPIRATION =        1.0760D+07     EVAPOTRANSPIRATION =          91207.22
           STREAMFLOW =        5904102.33             STREAMFLOW =          10423.32
     GW BOUNDARY FLOW =         162801.99       GW BOUNDARY FLOW =            723.48

   INFLOWS - OUTFLOWS =        -311237.28     INFLOWS - OUTFLOWS =        -102354.01
             --------                                   --------

 TOTAL STORAGE CHANGE =        -308202.71         STORAGE CHANGE =        -102348.41
       --------------                             --------------
         LAND SURFACE =         198678.97           LAND SURFACE =         -25500.84
            SOIL ZONE =         902052.85              SOIL ZONE =         -57950.71
     UNSATURATED ZONE =        -684012.67       UNSATURATED ZONE =         -13006.82
       SATURATED ZONE =        -724921.86         SATURATED ZONE =          -5890.04

 OVERALL BUDGET ERROR =          -3034.57           BUDGET ERROR =             -5.61


  PERCENT DISCREPANCY =             -0.02    PERCENT DISCREPANCY =             -0.01



1
 SUMMARY VOLUMETRIC BUDGET FOR GSFLOW 
 DATE: 05 19 1981              CUMULATIVE TIME STEP:     231
 MODFLOW STRESS PERIOD      2     CURRENT TIME STEP:     231     ITERATIONS:       8

 -----------------------------------------------------------------------------------

   CUMULATIVE VOLUMES               L**3   RATES FOR THIS TIME STEP           L**3/T
   ------------------                      ------------------------

                                     IN                                         IN
                                     --                                         --
        PRECIPITATION =        1.7837D+07          PRECIPITATION =         169045.43
           STREAMFLOW =                               STREAMFLOW =                  
     GW BOUNDARY FLOW =                         GW BOUNDARY FLOW =                  


                                    OUT                                        OUT
                                    ---                                        ---
   EVAPOTRANSPIRATION =        1.1103D+07     EVAPOTRANSPIRATION =          32129.65
           STREAMFLOW =        6035004.08             STREAMFLOW =          27327.91
     GW BOUNDARY FLOW =         167869.33       GW BOUNDARY FLOW =            725.35

   INFLOWS - OUTFLOWS =         530880.98     INFLOWS - OUTFLOWS =         108862.51
             --------                                   --------

 TOTAL STORAGE CHANGE =         533954.39         STORAGE CHANGE =         108866.20
       --------------                             --------------
         LAND SURFACE =         167097.84           LAND SURFACE =           4534.24
            SOIL ZONE =        1882813.40              SOIL ZONE =         110145.30
     UNSATURATED ZONE =        -751129.36       UNSATURATED ZONE =           -110.01
       SATURATED ZONE =        -764827.49         SATURATED ZONE =          -5703.32

 OVERALL BUDGET ERROR =          -3073.41           BUDGET ERROR =             -3.69


  PERCENT DISCREPANCY =             -0.02    PERCENT DISCREPANCY =             -0.00



1
 SUMMARY VOLUMETRIC BUDGET FOR GSFLOW 
 DATE: 05 26 1981              CUMULATIVE TIME STEP:     238
 MODFLOW STRESS PERIOD      2     CURRENT TIME STEP:     238     ITERATIONS:       8

 -----------------------------------------------------------------------------------

   CUMULATIVE VOLUMES               L**3   RATES FOR THIS TIME STEP           L**3/T
   ------------------                      ------------------------

                                     IN                                         IN
                                     --                                         --
        PRECIPITATION =        1.8252D+07          PRECIPITATION =         284303.67
           STREAMFLOW =                               STREAMFLOW =                  
     GW BOUNDARY FLOW =                         GW BOUNDARY FLOW =                  


                                    OUT                                        OUT
                                    ---                                        ---
   EVAPOTRANSPIRATION =        1.1925D+07     EVAPOTRANSPIRATION =         132232.36
           STREAMFLOW =        6148543.05             STREAMFLOW =          19502.36
     GW BOUNDARY FLOW =         172939.53       GW BOUNDARY FLOW =            724.03

   INFLOWS - OUTFLOWS =           5291.69     INFLOWS - OUTFLOWS =         131844.93
             --------                                   --------

 TOTAL STORAGE CHANGE =           8398.16         STORAGE CHANGE =         131851.05
       --------------                             --------------
         LAND SURFACE =          96880.50           LAND SURFACE =          -7049.94
            SOIL ZONE =        1531910.75              SOIL ZONE =         156302.25
     UNSATURATED ZONE =        -807888.82       UNSATURATED ZONE =         -10475.20
       SATURATED ZONE =        -812504.27         SATURATED ZONE =          -6926.06

 OVERALL BUDGET ERROR =          -3106.47           BUDGET ERROR =             -6.13


  PERCENT DISCREPANCY =             -0.02    PERCENT DISCREPANCY =             -0.00



1
 SUMMARY VOLUMETRIC BUDGET FOR GSFLOW 
 DATE: 06 02 1981              CUMULATIVE TIME STEP:     245
 MODFLOW STRESS PERIOD      2     CURRENT TIME STEP:     245     ITERATIONS:      10

 -----------------------------------------------------------------------------------

   CUMULATIVE VOLUMES               L**3   RATES FOR THIS TIME STEP           L**3/T
   ------------------                      ------------------------

                                     IN                                         IN
                                     --                                         --
        PRECIPITATION =        1.8318D+07          PRECIPITATION =          50869.96
           STREAMFLOW =                               STREAMFLOW =                  
     GW BOUNDARY FLOW =                         GW BOUNDARY FLOW =                  


                                    OUT                                        OUT
                                    ---                                        ---
   EVAPOTRANSPIRATION =        1.2722D+07     EVAPOTRANSPIRATION =          69644.92
           STREAMFLOW =        6219319.12             STREAMFLOW =           7767.19
     GW BOUNDARY FLOW =         178002.10       GW BOUNDARY FLOW =            722.65

   INFLOWS - OUTFLOWS =        -800874.45     INFLOWS - OUTFLOWS =         -27264.80
             --------                                   --------

 TOTAL STORAGE CHANGE =        -797717.82         STORAGE CHANGE =         -27257.68
       --------------                             --------------
         LAND SURFACE =          61812.20           LAND SURFACE =          30830.75
            SOIL ZONE =         905714.41              SOIL ZONE =         -35991.63
     UNSATURATED ZONE =        -895476.68       UNSATURATED ZONE =         -13619.25
       SATURATED ZONE =        -869767.75         SATURATED ZONE =          -8477.55

 OVERALL BUDGET ERROR =          -3156.63           BUDGET ERROR =             -7.13


  PERCENT DISCREPANCY =             -0.02    PERCENT DISCREPANCY =             -0.01



1
 SUMMARY VOLUMETRIC BUDGET FOR GSFLOW 
 DATE: 06 09 1981              CUMULATIVE TIME STEP:     252
 MODFLOW STRESS PERIOD      2     CURRENT TIME STEP:     252     ITERATIONS:       9

 -----------------------------------------------------------------------------------

   CUMULATIVE VOLUMES               L**3   RATES FOR THIS TIME STEP           L**3/T
   ------------------                      ------------------------

                                     IN                                         IN
                                     --                                         --
        PRECIPITATION =        1.8318D+07          PRECIPITATION =                  
           STREAMFLOW =                               STREAMFLOW =                  
     GW BOUNDARY FLOW =                         GW BOUNDARY FLOW =                  


                                    OUT                                        OUT
                                    ---                                        ---
   EVAPOTRANSPIRATION =        1.3217D+07     EVAPOTRANSPIRATION =          51636.37
           STREAMFLOW =        6267119.04             STREAMFLOW =           6435.14
     GW BOUNDARY FLOW =         183058.03       GW BOUNDARY FLOW =            722.08

   INFLOWS - OUTFLOWS =       -1348912.28     INFLOWS - OUTFLOWS =         -58793.58
             --------                                   --------

 TOTAL STORAGE CHANGE =       -1345706.80         STORAGE CHANGE =         -58787.00
       --------------                             --------------
         LAND SURFACE =           8252.08           LAND SURFACE =          -1595.17
            SOIL ZONE =         566986.23              SOIL ZONE =         -34912.48
     UNSATURATED ZONE =        -990852.44       UNSATURATED ZONE =         -13583.24
       SATURATED ZONE =        -930092.67         SATURATED ZONE =          -8696.11

 OVERALL BUDGET ERROR =          -3205.48           BUDGET ERROR =             -6.58


  PERCENT DISCREPANCY =             -0.02    PERCENT DISCREPANCY =             -0.01



1
 SUMMARY VOLUMETRIC BUDGET FOR GSFLOW 
 DATE: 06 16 1981              CUMULATIVE TIME STEP:     259
 MODFLOW STRESS PERIOD      2     CURRENT TIME STEP:     259     ITERATIONS:      10

 -----------------------------------------------------------------------------------

   CUMULATIVE VOLUMES               L**3   RATES FOR THIS TIME STEP           L**3/T
   ------------------                      ------------------------

                                     IN                                         IN
                                     --                                         --
        PRECIPITATION =        1.8318D+07          PRECIPITATION =                  
           STREAMFLOW =                               STREAMFLOW =                  
     GW BOUNDARY FLOW =                         GW BOUNDARY FLOW =                  


                                    OUT                                        OUT
                                    ---                                        ---
   EVAPOTRANSPIRATION =        1.3409D+07     EVAPOTRANSPIRATION =          45315.40
           STREAMFLOW =        6310871.07             STREAMFLOW =           6176.19
     GW BOUNDARY FLOW =         188111.52       GW BOUNDARY FLOW =            721.84

   INFLOWS - OUTFLOWS =       -1589832.49     INFLOWS - OUTFLOWS =         -52213.43
             --------                                   --------

 TOTAL STORAGE CHANGE =       -1586580.69         STORAGE CHANGE =         -52206.91
       --------------                             --------------
         LAND SURFACE =           3425.60           LAND SURFACE =           -943.52
            SOIL ZONE =         485583.35              SOIL ZONE =         -29310.79
     UNSATURATED ZONE =       -1082730.26       UNSATURATED ZONE =         -12690.17
       SATURATED ZONE =        -992859.39         SATURATED ZONE =          -9262.43

 OVERALL BUDGET ERROR =          -3251.80           BUDGET ERROR =             -6.52


  PERCENT DISCREPANCY =             -0.02    PERCENT DISCREPANCY =             -0.01



1
 SUMMARY VOLUMETRIC BUDGET FOR GSFLOW 
 DATE: 06 23 1981              CUMULATIVE TIME STEP:     266
 MODFLOW STRESS PERIOD      2     CURRENT TIME STEP:     266     ITERATIONS:       9

 -----------------------------------------------------------------------------------

   CUMULATIVE VOLUMES               L**3   RATES FOR THIS TIME STEP           L**3/T
   ------------------                      ------------------------

                                     IN                                         IN
                                     --                                         --
        PRECIPITATION =        1.8318D+07          PRECIPITATION =                  
           STREAMFLOW =                               STREAMFLOW =                  
     GW BOUNDARY FLOW =                         GW BOUNDARY FLOW =                  


                                    OUT                                        OUT
                                    ---                                        ---
   EVAPOTRANSPIRATION =        1.3707D+07     EVAPOTRANSPIRATION =          34868.46
           STREAMFLOW =        6353093.00             STREAMFLOW =           5955.58
     GW BOUNDARY FLOW =         193163.56       GW BOUNDARY FLOW =            721.62

   INFLOWS - OUTFLOWS =       -1935340.01     INFLOWS - OUTFLOWS =         -41545.66
             --------                                   --------

 TOTAL STORAGE CHANGE =       -1932043.74         STORAGE CHANGE =         -41539.20
       --------------                             --------------
         LAND SURFACE =                             LAND SURFACE =                  
            SOIL ZONE =         296035.74              SOIL ZONE =         -19878.67
     UNSATURATED ZONE =       -1167305.37       UNSATURATED ZONE =         -11543.84
       SATURATED ZONE =       -1060774.10         SATURATED ZONE =         -10116.68

 OVERALL BUDGET ERROR =          -3296.27           BUDGET ERROR =             -6.46


  PERCENT DISCREPANCY =             -0.02    PERCENT DISCREPANCY =             -0.02



1
 SUMMARY VOLUMETRIC BUDGET FOR GSFLOW 
 DATE: 06 30 1981              CUMULATIVE TIME STEP:     273
 MODFLOW STRESS PERIOD      2     CURRENT TIME STEP:     273     ITERATIONS:       7

 -----------------------------------------------------------------------------------

   CUMULATIVE VOLUMES               L**3   RATES FOR THIS TIME STEP           L**3/T
   ------------------                      ------------------------

                                     IN                                         IN
[...]
     GW BOUNDARY FLOW =        4176819.01       GW BOUNDARY FLOW =            725.86

   INFLOWS - OUTFLOWS =       -7113245.55     INFLOWS - OUTFLOWS =         -53574.48
             --------                                   --------

 TOTAL STORAGE CHANGE =       -7091523.57         STORAGE CHANGE =         -53572.44
       --------------                             --------------
         LAND SURFACE =          84495.33           LAND SURFACE =          -4962.88
            SOIL ZONE =         278920.91              SOIL ZONE =         -26742.49
     UNSATURATED ZONE =        4981975.77       UNSATURATED ZONE =         -28397.04
       SATURATED ZONE =       -1.2437D+07         SATURATED ZONE =           6529.96

 OVERALL BUDGET ERROR =         -21721.98           BUDGET ERROR =             -2.04


  PERCENT DISCREPANCY =             -0.00    PERCENT DISCREPANCY =             -0.00



1
 SUMMARY VOLUMETRIC BUDGET FOR GSFLOW 
 DATE: 07 30 1996              CUMULATIVE TIME STEP:    5782
 MODFLOW STRESS PERIOD      2     CURRENT TIME STEP:    5782     ITERATIONS:      10

 -----------------------------------------------------------------------------------

   CUMULATIVE VOLUMES               L**3   RATES FOR THIS TIME STEP           L**3/T
   ------------------                      ------------------------

                                     IN                                         IN
                                     --                                         --
        PRECIPITATION =        4.6511D+08          PRECIPITATION =                  
           STREAMFLOW =                               STREAMFLOW =                  
     GW BOUNDARY FLOW =                         GW BOUNDARY FLOW =                  


                                    OUT                                        OUT
                                    ---                                        ---
   EVAPOTRANSPIRATION =        2.8369D+08     EVAPOTRANSPIRATION =          30919.89
           STREAMFLOW =        1.8463D+08             STREAMFLOW =           6914.51
     GW BOUNDARY FLOW =        4181898.11       GW BOUNDARY FLOW =            725.47

   INFLOWS - OUTFLOWS =       -7388175.96     INFLOWS - OUTFLOWS =         -38559.87
             --------                                   --------

 TOTAL STORAGE CHANGE =       -7366442.44         STORAGE CHANGE =         -38557.89
       --------------                             --------------
         LAND SURFACE =          55405.90           LAND SURFACE =          -3487.93
            SOIL ZONE =         184704.75              SOIL ZONE =         -13554.53
     UNSATURATED ZONE =        4789348.52       UNSATURATED ZONE =         -27392.15
       SATURATED ZONE =       -1.2396D+07         SATURATED ZONE =           5876.71

 OVERALL BUDGET ERROR =         -21733.52           BUDGET ERROR =             -1.97


  PERCENT DISCREPANCY =             -0.00    PERCENT DISCREPANCY =             -0.01



1
 SUMMARY VOLUMETRIC BUDGET FOR GSFLOW 
 DATE: 08 06 1996              CUMULATIVE TIME STEP:    5789
 MODFLOW STRESS PERIOD      2     CURRENT TIME STEP:    5789     ITERATIONS:      10

 -----------------------------------------------------------------------------------

   CUMULATIVE VOLUMES               L**3   RATES FOR THIS TIME STEP           L**3/T
   ------------------                      ------------------------

                                     IN                                         IN
                                     --                                         --
        PRECIPITATION =        4.6511D+08          PRECIPITATION =                  
           STREAMFLOW =                               STREAMFLOW =                  
     GW BOUNDARY FLOW =                         GW BOUNDARY FLOW =                  


                                    OUT                                        OUT
                                    ---                                        ---
   EVAPOTRANSPIRATION =        2.8383D+08     EVAPOTRANSPIRATION =          18903.40
           STREAMFLOW =        1.8468D+08             STREAMFLOW =           6700.38
     GW BOUNDARY FLOW =        4186975.76       GW BOUNDARY FLOW =            725.29

   INFLOWS - OUTFLOWS =       -7585314.72     INFLOWS - OUTFLOWS =         -26329.07
             --------                                   --------

 TOTAL STORAGE CHANGE =       -7563567.68         STORAGE CHANGE =         -26327.09
       --------------                             --------------
         LAND SURFACE =          37062.04           LAND SURFACE =          -2253.66
            SOIL ZONE =         155238.16              SOIL ZONE =          -2878.83
     UNSATURATED ZONE =        4600793.74       UNSATURATED ZONE =         -26546.66
       SATURATED ZONE =       -1.2357D+07         SATURATED ZONE =           5352.06

 OVERALL BUDGET ERROR =         -21747.05           BUDGET ERROR =             -1.97


  PERCENT DISCREPANCY =             -0.00    PERCENT DISCREPANCY =             -0.01



1
 SUMMARY VOLUMETRIC BUDGET FOR GSFLOW 
 DATE: 08 13 1996              CUMULATIVE TIME STEP:    5796
 MODFLOW STRESS PERIOD      2     CURRENT TIME STEP:    5796     ITERATIONS:      11

 -----------------------------------------------------------------------------------

   CUMULATIVE VOLUMES               L**3   RATES FOR THIS TIME STEP           L**3/T
   ------------------                      ------------------------

                                     IN                                         IN
                                     --                                         --
        PRECIPITATION =        4.6531D+08          PRECIPITATION =          54454.08
           STREAMFLOW =                               STREAMFLOW =                  
     GW BOUNDARY FLOW =                         GW BOUNDARY FLOW =                  


                                    OUT                                        OUT
                                    ---                                        ---
   EVAPOTRANSPIRATION =        2.8401D+08     EVAPOTRANSPIRATION =          30247.08
           STREAMFLOW =        1.8473D+08             STREAMFLOW =           7904.17
     GW BOUNDARY FLOW =        4192052.09       GW BOUNDARY FLOW =            725.20

   INFLOWS - OUTFLOWS =       -7614562.12     INFLOWS - OUTFLOWS =          15577.62
             --------                                   --------

 TOTAL STORAGE CHANGE =       -7592803.11         STORAGE CHANGE =          15582.49
       --------------                             --------------
         LAND SURFACE =          53162.52           LAND SURFACE =          -2312.39
            SOIL ZONE =         256748.24              SOIL ZONE =          38684.05
     UNSATURATED ZONE =        4423351.50       UNSATURATED ZONE =         -24766.78
       SATURATED ZONE =       -1.2326D+07         SATURATED ZONE =           3977.62

 OVERALL BUDGET ERROR =         -21759.02           BUDGET ERROR =             -4.87


  PERCENT DISCREPANCY =             -0.00    PERCENT DISCREPANCY =             -0.01



1
 SUMMARY VOLUMETRIC BUDGET FOR GSFLOW 
 DATE: 08 20 1996              CUMULATIVE TIME STEP:    5803
 MODFLOW STRESS PERIOD      2     CURRENT TIME STEP:    5803     ITERATIONS:       9

 -----------------------------------------------------------------------------------

   CUMULATIVE VOLUMES               L**3   RATES FOR THIS TIME STEP           L**3/T
   ------------------                      ------------------------

                                     IN                                         IN
                                     --                                         --
        PRECIPITATION =        4.6531D+08          PRECIPITATION =                  
           STREAMFLOW =                               STREAMFLOW =                  
     GW BOUNDARY FLOW =                         GW BOUNDARY FLOW =                  


                                    OUT                                        OUT
                                    ---                                        ---
   EVAPOTRANSPIRATION =        2.8421D+08     EVAPOTRANSPIRATION =          19409.10
           STREAMFLOW =        1.8478D+08             STREAMFLOW =           6490.29
     GW BOUNDARY FLOW =        4197126.43       GW BOUNDARY FLOW =            724.70

   INFLOWS - OUTFLOWS =       -7865892.30     INFLOWS - OUTFLOWS =         -26624.09
             --------                                   --------

 TOTAL STORAGE CHANGE =       -7844123.38         STORAGE CHANGE =         -26624.69
       --------------                             --------------
         LAND SURFACE =           6921.38           LAND SURFACE =          -1297.31
            SOIL ZONE =         196924.23              SOIL ZONE =          -4689.14
     UNSATURATED ZONE =        4253822.92       UNSATURATED ZONE =         -23766.04
       SATURATED ZONE =       -1.2302D+07         SATURATED ZONE =           3127.81

 OVERALL BUDGET ERROR =         -21768.92           BUDGET ERROR =              0.59


  PERCENT DISCREPANCY =             -0.00    PERCENT DISCREPANCY =              0.00



1
 SUMMARY VOLUMETRIC BUDGET FOR GSFLOW 
 DATE: 08 27 1996              CUMULATIVE TIME STEP:    5810
 MODFLOW STRESS PERIOD      2     CURRENT TIME STEP:    5810     ITERATIONS:       9

 -----------------------------------------------------------------------------------

   CUMULATIVE VOLUMES               L**3   RATES FOR THIS TIME STEP           L**3/T
   ------------------                      ------------------------

                                     IN                                         IN
                                     --                                         --
        PRECIPITATION =        4.6531D+08          PRECIPITATION =                  
           STREAMFLOW =                               STREAMFLOW =                  
     GW BOUNDARY FLOW =                         GW BOUNDARY FLOW =                  


                                    OUT                                        OUT
                                    ---                                        ---
   EVAPOTRANSPIRATION =        2.8435D+08     EVAPOTRANSPIRATION =          15250.15
           STREAMFLOW =        1.8482D+08             STREAMFLOW =           6324.48
     GW BOUNDARY FLOW =        4202197.48       GW BOUNDARY FLOW =            724.25

   INFLOWS - OUTFLOWS =       -8056636.76     INFLOWS - OUTFLOWS =         -22298.89
             --------                                   --------

 TOTAL STORAGE CHANGE =       -8034869.75         STORAGE CHANGE =         -22299.35
       --------------                             --------------
         LAND SURFACE =           1243.96           LAND SURFACE =           -271.65
            SOIL ZONE =         155272.16              SOIL ZONE =          -1648.25
     UNSATURATED ZONE =        4092779.00       UNSATURATED ZONE =         -22790.46
       SATURATED ZONE =       -1.2284D+07         SATURATED ZONE =           2411.01

 OVERALL BUDGET ERROR =         -21767.01           BUDGET ERROR =              0.46


  PERCENT DISCREPANCY =             -0.00    PERCENT DISCREPANCY =              0.00



1
 SUMMARY VOLUMETRIC BUDGET FOR GSFLOW 
 DATE: 09 03 1996              CUMULATIVE TIME STEP:    5817
 MODFLOW STRESS PERIOD      2     CURRENT TIME STEP:    5817     ITERATIONS:       8

 -----------------------------------------------------------------------------------

   CUMULATIVE VOLUMES               L**3   RATES FOR THIS TIME STEP           L**3/T
   ------------------                      ------------------------

                                     IN                                         IN
                                     --                                         --
        PRECIPITATION =        4.6531D+08          PRECIPITATION =                  
           STREAMFLOW =                               STREAMFLOW =                  
     GW BOUNDARY FLOW =                         GW BOUNDARY FLOW =                  


                                    OUT                                        OUT
                                    ---                                        ---
   EVAPOTRANSPIRATION =        2.8445D+08     EVAPOTRANSPIRATION =          12515.20
           STREAMFLOW =        1.8486D+08             STREAMFLOW =           6217.94
     GW BOUNDARY FLOW =        4207265.38       GW BOUNDARY FLOW =            723.80

   INFLOWS - OUTFLOWS =       -8212856.61     INFLOWS - OUTFLOWS =         -19456.94
             --------                                   --------

 TOTAL STORAGE CHANGE =       -8191102.22         STORAGE CHANGE =         -19463.32
       --------------                             --------------
         LAND SURFACE =            583.76           LAND SURFACE =            -75.05
            SOIL ZONE =         141401.32              SOIL ZONE =            757.14
     UNSATURATED ZONE =        3937510.18       UNSATURATED ZONE =         -21778.48
       SATURATED ZONE =       -1.2271D+07         SATURATED ZONE =           1633.07

 OVERALL BUDGET ERROR =         -21754.39           BUDGET ERROR =              6.38


  PERCENT DISCREPANCY =             -0.00    PERCENT DISCREPANCY =              0.03



1
 SUMMARY VOLUMETRIC BUDGET FOR GSFLOW 
 DATE: 09 10 1996              CUMULATIVE TIME STEP:    5824
 MODFLOW STRESS PERIOD      2     CURRENT TIME STEP:    5824     ITERATIONS:       8

 -----------------------------------------------------------------------------------

   CUMULATIVE VOLUMES               L**3   RATES FOR THIS TIME STEP           L**3/T
   ------------------                      ------------------------

                                     IN                                         IN
                                     --                                         --
        PRECIPITATION =        4.6531D+08          PRECIPITATION =                  
           STREAMFLOW =                               STREAMFLOW =                  
     GW BOUNDARY FLOW =                         GW BOUNDARY FLOW =                  


                                    OUT                                        OUT
                                    ---                                        ---
   EVAPOTRANSPIRATION =        2.8454D+08     EVAPOTRANSPIRATION =          13741.16
           STREAMFLOW =        1.8491D+08             STREAMFLOW =           6121.52
     GW BOUNDARY FLOW =        4212330.24       GW BOUNDARY FLOW =            723.36

   INFLOWS - OUTFLOWS =       -8347531.66     INFLOWS - OUTFLOWS =         -20586.04
             --------                                   --------

 TOTAL STORAGE CHANGE =       -8325812.94         STORAGE CHANGE =         -20590.42
       --------------                             --------------
         LAND SURFACE =            141.35           LAND SURFACE =            -69.28
            SOIL ZONE =         147225.12              SOIL ZONE =           -604.82
     UNSATURATED ZONE =        3789588.22       UNSATURATED ZONE =         -20590.86
       SATURATED ZONE =       -1.2263D+07         SATURATED ZONE =            674.54

 OVERALL BUDGET ERROR =         -21718.72           BUDGET ERROR =              4.38


  PERCENT DISCREPANCY =             -0.00    PERCENT DISCREPANCY =              0.02



1
 SUMMARY VOLUMETRIC BUDGET FOR GSFLOW 
 DATE: 09 17 1996              CUMULATIVE TIME STEP:    5831
 MODFLOW STRESS PERIOD      2     CURRENT TIME STEP:    5831     ITERATIONS:      11

 -----------------------------------------------------------------------------------

   CUMULATIVE VOLUMES               L**3   RATES FOR THIS TIME STEP           L**3/T
   ------------------                      ------------------------

                                     IN                                         IN
                                     --                                         --
        PRECIPITATION =        4.6637D+08          PRECIPITATION =                  
           STREAMFLOW =                               STREAMFLOW =                  
     GW BOUNDARY FLOW =                         GW BOUNDARY FLOW =                  


                                    OUT                                        OUT
                                    ---                                        ---
   EVAPOTRANSPIRATION =        2.8472D+08     EVAPOTRANSPIRATION =          58054.02
           STREAMFLOW =        1.8497D+08             STREAMFLOW =          10274.13
     GW BOUNDARY FLOW =        4217394.69       GW BOUNDARY FLOW =            723.95

   INFLOWS - OUTFLOWS =       -7542898.14     INFLOWS - OUTFLOWS =         -69052.10
             --------                                   --------

 TOTAL STORAGE CHANGE =       -7521192.78         STORAGE CHANGE =         -69047.65
       --------------                             --------------
         LAND SURFACE =           3348.24           LAND SURFACE =         -35098.95
            SOIL ZONE =        1085214.34              SOIL ZONE =         -14255.44
     UNSATURATED ZONE =        3647475.66       UNSATURATED ZONE =         -19975.81
       SATURATED ZONE =       -1.2257D+07         SATURATED ZONE =            282.55

 OVERALL BUDGET ERROR =         -21705.36           BUDGET ERROR =             -4.46


  PERCENT DISCREPANCY =             -0.00    PERCENT DISCREPANCY =             -0.01



1
 SUMMARY VOLUMETRIC BUDGET FOR GSFLOW 
 DATE: 09 24 1996              CUMULATIVE TIME STEP:    5838
 MODFLOW STRESS PERIOD      2     CURRENT TIME STEP:    5838     ITERATIONS:      10

 -----------------------------------------------------------------------------------

   CUMULATIVE VOLUMES               L**3   RATES FOR THIS TIME STEP           L**3/T
   ------------------                      ------------------------

                                     IN                                         IN
                                     --                                         --
        PRECIPITATION =        4.6637D+08          PRECIPITATION =                  
           STREAMFLOW =                               STREAMFLOW =                  
     GW BOUNDARY FLOW =                         GW BOUNDARY FLOW =                  


                                    OUT                                        OUT
                                    ---                                        ---
   EVAPOTRANSPIRATION =        2.8518D+08     EVAPOTRANSPIRATION =          54089.16
           STREAMFLOW =        1.8503D+08             STREAMFLOW =           6740.25
     GW BOUNDARY FLOW =        4222457.58       GW BOUNDARY FLOW =            722.88

   INFLOWS - OUTFLOWS =       -8064785.88     INFLOWS - OUTFLOWS =         -61552.29
             --------                                   --------

 TOTAL STORAGE CHANGE =       -8043053.82         STORAGE CHANGE =         -61549.02
       --------------                             --------------
         LAND SURFACE =                             LAND SURFACE =                  
            SOIL ZONE =         703797.85              SOIL ZONE =         -42044.82
     UNSATURATED ZONE =        3511618.95       UNSATURATED ZONE =         -18974.50
       SATURATED ZONE =       -1.2258D+07         SATURATED ZONE =           -529.70

 OVERALL BUDGET ERROR =         -21732.06           BUDGET ERROR =             -3.27


  PERCENT DISCREPANCY =             -0.00    PERCENT DISCREPANCY =             -0.01



 Number of time steps:   5844;  Number of non-convergence:   0
 MF iterations:         45418;  SZ iterations:           45418
 Average MF iterations:  7.77;  Average SZ iterations:    7.77
 Maximum MF iterations:    24;  Maximum SZ iterations:      24

