1
 SUMMARY VOLUMETRIC BUDGET FOR GSFLOW 
 DATE: 10 07 1980              CUMULATIVE TIME STEP:       7
 MODFLOW STRESS PERIOD      2     CURRENT TIME STEP:       7     ITERATIONS:       4

 -----------------------------------------------------------------------------------

   CUMULATIVE VOLUMES               L**3   RATES FOR THIS TIME STEP           L**3/T
   ------------------                      ------------------------

                                     IN                                         IN
                                     --                                         --
        PRECIPITATION =                            PRECIPITATION =                  
           STREAMFLOW =                               STREAMFLOW =                  
     GW BOUNDARY FLOW =                         GW BOUNDARY FLOW =                  


                                    OUT                                        OUT
                                    ---                                        ---
   EVAPOTRANSPIRATION =          63598.86     EVAPOTRANSPIRATION =           9287.66
           STREAMFLOW =          43081.79             STREAMFLOW =           6083.36
     GW BOUNDARY FLOW =           5067.91       GW BOUNDARY FLOW =            723.89

   INFLOWS - OUTFLOWS =        -111748.55     INFLOWS - OUTFLOWS =         -16094.91
             --------                                   --------

 TOTAL STORAGE CHANGE =        -111514.42         STORAGE CHANGE =         -16060.66
       --------------                             --------------
         LAND SURFACE =                             LAND SURFACE =                  
            SOIL ZONE =          46846.34              SOIL ZONE =           6398.93
     UNSATURATED ZONE =        -144965.30       UNSATURATED ZONE =         -20382.35
       SATURATED ZONE =         -13395.46         SATURATED ZONE =          -2077.23

 OVERALL BUDGET ERROR =           -234.13           BUDGET ERROR =            -34.25


  PERCENT DISCREPANCY =             -0.21    PERCENT DISCREPANCY =             -0.21



1
 SUMMARY VOLUMETRIC BUDGET FOR GSFLOW 
 DATE: 10 14 1980              CUMULATIVE TIME STEP:      14
 MODFLOW STRESS PERIOD      2     CURRENT TIME STEP:      14     ITERATIONS:       4

 -----------------------------------------------------------------------------------

   CUMULATIVE VOLUMES               L**3   RATES FOR THIS TIME STEP           L**3/T
   ------------------                      ------------------------

                                     IN                                         IN
                                     --                                         --
        PRECIPITATION =         650779.83          PRECIPITATION =         164754.40
           STREAMFLOW =                               STREAMFLOW =                  
     GW BOUNDARY FLOW =                         GW BOUNDARY FLOW =                  


                                    OUT                                        OUT
                                    ---                                        ---
   EVAPOTRANSPIRATION =         140452.62     EVAPOTRANSPIRATION =          10600.00
           STREAMFLOW =          94813.41             STREAMFLOW =           7683.16
     GW BOUNDARY FLOW =          10135.88       GW BOUNDARY FLOW =            724.16

   INFLOWS - OUTFLOWS =         405377.92     INFLOWS - OUTFLOWS =         145747.07
             --------                                   --------

 TOTAL STORAGE CHANGE =         885277.98         STORAGE CHANGE =         669672.34
       --------------                             --------------
         LAND SURFACE =         680863.49           LAND SURFACE =         655256.26
            SOIL ZONE =         517823.04              SOIL ZONE =          36527.37
     UNSATURATED ZONE =        -284674.35       UNSATURATED ZONE =         -19598.19
       SATURATED ZONE =         -28734.20         SATURATED ZONE =          -2513.10

 OVERALL BUDGET ERROR =        -479900.06           BUDGET ERROR =        -523925.27

  ***WARNING, CUMULATIVE VOLUME OFF > 5%
  ***CAUTION, FLUX RATES OFF > 10%

  PERCENT DISCREPANCY =            -53.88    PERCENT DISCREPANCY =           -122.78



1
 SUMMARY VOLUMETRIC BUDGET FOR GSFLOW 
 DATE: 10 21 1980              CUMULATIVE TIME STEP:      21
 MODFLOW STRESS PERIOD      2     CURRENT TIME STEP:      21     ITERATIONS:       5

 -----------------------------------------------------------------------------------

   CUMULATIVE VOLUMES               L**3   RATES FOR THIS TIME STEP           L**3/T
   ------------------                      ------------------------

                                     IN                                         IN
                                     --                                         --
        PRECIPITATION =         733157.03          PRECIPITATION =                  
           STREAMFLOW =                               STREAMFLOW =                  
     GW BOUNDARY FLOW =                         GW BOUNDARY FLOW =                  


                                    OUT                                        OUT
                                    ---                                        ---
   EVAPOTRANSPIRATION =         278655.80     EVAPOTRANSPIRATION =          22061.82
           STREAMFLOW =         141672.32             STREAMFLOW =           6437.89
     GW BOUNDARY FLOW =          15203.31       GW BOUNDARY FLOW =            723.78

   INFLOWS - OUTFLOWS =         297625.60     INFLOWS - OUTFLOWS =         -29223.48
             --------                                   --------

 TOTAL STORAGE CHANGE =          52772.36         STORAGE CHANGE =         -29193.34
       --------------                             --------------
         LAND SURFACE =                             LAND SURFACE =                  
            SOIL ZONE =         520630.92              SOIL ZONE =          -7202.81
     UNSATURATED ZONE =        -418445.92       UNSATURATED ZONE =         -18762.92
       SATURATED ZONE =         -49412.64         SATURATED ZONE =          -3227.61

 OVERALL BUDGET ERROR =         244853.24           BUDGET ERROR =            -30.14

  ***WARNING, CUMULATIVE VOLUME OFF > 5%

  PERCENT DISCREPANCY =             40.09    PERCENT DISCREPANCY =             -0.10



1
 SUMMARY VOLUMETRIC BUDGET FOR GSFLOW 
 DATE: 10 28 1980              CUMULATIVE TIME STEP:      28
 MODFLOW STRESS PERIOD      2     CURRENT TIME STEP:      28     ITERATIONS:       8

 -----------------------------------------------------------------------------------

   CUMULATIVE VOLUMES               L**3   RATES FOR THIS TIME STEP           L**3/T
   ------------------                      ------------------------

                                     IN                                         IN
                                     --                                         --
        PRECIPITATION =        1070903.53          PRECIPITATION =                  
           STREAMFLOW =                               STREAMFLOW =                  
     GW BOUNDARY FLOW =                         GW BOUNDARY FLOW =                  


                                    OUT                                        OUT
                                    ---                                        ---
   EVAPOTRANSPIRATION =         405574.07     EVAPOTRANSPIRATION =          14532.16
           STREAMFLOW =         195426.64             STREAMFLOW =           7692.18
     GW BOUNDARY FLOW =          20270.52       GW BOUNDARY FLOW =            723.98

   INFLOWS - OUTFLOWS =         449632.30     INFLOWS - OUTFLOWS =         -22948.32
             --------                                   --------

 TOTAL STORAGE CHANGE =         197120.53         STORAGE CHANGE =         -51079.02
       --------------                             --------------
         LAND SURFACE =          21330.45           LAND SURFACE =         -30083.00
            SOIL ZONE =         795599.59              SOIL ZONE =            713.92
     UNSATURATED ZONE =        -546587.15       UNSATURATED ZONE =         -17975.51
       SATURATED ZONE =         -73222.36         SATURATED ZONE =          -3734.43

 OVERALL BUDGET ERROR =         252511.77           BUDGET ERROR =          28130.69

  ***WARNING, CUMULATIVE VOLUME OFF > 5%
  ***CAUTION, FLUX RATES OFF > 10%

  PERCENT DISCREPANCY =             26.73    PERCENT DISCREPANCY =             76.00



1
 SUMMARY VOLUMETRIC BUDGET FOR GSFLOW 
 DATE: 11 04 1980              CUMULATIVE TIME STEP:      35
 MODFLOW STRESS PERIOD      2     CURRENT TIME STEP:      35     ITERATIONS:       5

 -----------------------------------------------------------------------------------

   CUMULATIVE VOLUMES               L**3   RATES FOR THIS TIME STEP           L**3/T
   ------------------                      ------------------------

                                     IN                                         IN
                                     --                                         --
        PRECIPITATION =        1070903.53          PRECIPITATION =                  
           STREAMFLOW =                               STREAMFLOW =                  
     GW BOUNDARY FLOW =                         GW BOUNDARY FLOW =                  


                                    OUT                                        OUT
                                    ---                                        ---
   EVAPOTRANSPIRATION =         624873.35     EVAPOTRANSPIRATION =          29319.10
           STREAMFLOW =         245730.98             STREAMFLOW =           6794.91
     GW BOUNDARY FLOW =          25337.33       GW BOUNDARY FLOW =            723.74

   INFLOWS - OUTFLOWS =         174961.86     INFLOWS - OUTFLOWS =         -36837.75
             --------                                   --------

 TOTAL STORAGE CHANGE =         -97154.97         STORAGE CHANGE =         -36808.96
       --------------                             --------------
         LAND SURFACE =                             LAND SURFACE =                  
            SOIL ZONE =         674519.97              SOIL ZONE =         -15160.65
     UNSATURATED ZONE =        -669663.53       UNSATURATED ZONE =         -17294.72
       SATURATED ZONE =        -102011.41         SATURATED ZONE =          -4353.58

 OVERALL BUDGET ERROR =         272116.83           BUDGET ERROR =            -28.79

  ***WARNING, CUMULATIVE VOLUME OFF > 5%

  PERCENT DISCREPANCY =             26.37    PERCENT DISCREPANCY =             -0.08



1
 SUMMARY VOLUMETRIC BUDGET FOR GSFLOW 
 DATE: 11 11 1980              CUMULATIVE TIME STEP:      42
 MODFLOW STRESS PERIOD      2     CURRENT TIME STEP:      42     ITERATIONS:       5

 -----------------------------------------------------------------------------------

   CUMULATIVE VOLUMES               L**3   RATES FOR THIS TIME STEP           L**3/T
   ------------------                      ------------------------

                                     IN                                         IN
                                     --                                         --
        PRECIPITATION =        1573762.54          PRECIPITATION =         255182.19
           STREAMFLOW =                               STREAMFLOW =                  
     GW BOUNDARY FLOW =                         GW BOUNDARY FLOW =                  


                                    OUT                                        OUT
                                    ---                                        ---
   EVAPOTRANSPIRATION =         776851.02     EVAPOTRANSPIRATION =          16124.89
           STREAMFLOW =         303423.05             STREAMFLOW =          11836.41
     GW BOUNDARY FLOW =          30404.30       GW BOUNDARY FLOW =            724.14

   INFLOWS - OUTFLOWS =         463084.17     INFLOWS - OUTFLOWS =         226496.75
             --------                                   --------

 TOTAL STORAGE CHANGE =         316240.08         STORAGE CHANGE =         351615.04
       --------------                             --------------
         LAND SURFACE =         137211.70           LAND SURFACE =         137211.70
            SOIL ZONE =        1099350.06              SOIL ZONE =         234811.44
     UNSATURATED ZONE =        -787608.16       UNSATURATED ZONE =         -16472.91
       SATURATED ZONE =        -132713.53         SATURATED ZONE =          -3935.19

 OVERALL BUDGET ERROR =         146844.10           BUDGET ERROR =        -125118.28

  ***WARNING, CUMULATIVE VOLUME OFF > 5%
  ***CAUTION, FLUX RATES OFF > 10%

  PERCENT DISCREPANCY =              9.79    PERCENT DISCREPANCY =            -39.38



1
 SUMMARY VOLUMETRIC BUDGET FOR GSFLOW 
 DATE: 11 18 1980              CUMULATIVE TIME STEP:      49
 MODFLOW STRESS PERIOD      2     CURRENT TIME STEP:      49     ITERATIONS:       5

 -----------------------------------------------------------------------------------

   CUMULATIVE VOLUMES               L**3   RATES FOR THIS TIME STEP           L**3/T
   ------------------                      ------------------------

                                     IN                                         IN
                                     --                                         --
        PRECIPITATION =        1573762.54          PRECIPITATION =                  
           STREAMFLOW =                               STREAMFLOW =                  
     GW BOUNDARY FLOW =                         GW BOUNDARY FLOW =                  


                                    OUT                                        OUT
                                    ---                                        ---
   EVAPOTRANSPIRATION =         842361.01     EVAPOTRANSPIRATION =          13986.05
           STREAMFLOW =         366254.96             STREAMFLOW =           9112.24
     GW BOUNDARY FLOW =          35472.89       GW BOUNDARY FLOW =            724.07

   INFLOWS - OUTFLOWS =         329673.68     INFLOWS - OUTFLOWS =         -23822.36
             --------                                   --------

 TOTAL STORAGE CHANGE =          98571.55         STORAGE CHANGE =         -28130.46
       --------------                             --------------
         LAND SURFACE =          45166.92           LAND SURFACE =          -5324.94
            SOIL ZONE =        1121270.60              SOIL ZONE =          -1773.71
     UNSATURATED ZONE =        -901000.82       UNSATURATED ZONE =         -15972.19
       SATURATED ZONE =        -166865.15         SATURATED ZONE =          -5059.62

 OVERALL BUDGET ERROR =         231102.13           BUDGET ERROR =           4308.10

  ***WARNING, CUMULATIVE VOLUME OFF > 5%
  ***CAUTION, FLUX RATES OFF > 10%

  PERCENT DISCREPANCY =             15.85    PERCENT DISCREPANCY =             16.58



1
 SUMMARY VOLUMETRIC BUDGET FOR GSFLOW 
 DATE: 11 25 1980              CUMULATIVE TIME STEP:      56
 MODFLOW STRESS PERIOD      2     CURRENT TIME STEP:      56     ITERATIONS:       9

 -----------------------------------------------------------------------------------

   CUMULATIVE VOLUMES               L**3   RATES FOR THIS TIME STEP           L**3/T
   ------------------                      ------------------------

                                     IN                                         IN
                                     --                                         --
        PRECIPITATION =        1648816.13          PRECIPITATION =                  
           STREAMFLOW =                               STREAMFLOW =                  
     GW BOUNDARY FLOW =                         GW BOUNDARY FLOW =                  


                                    OUT                                        OUT
                                    ---                                        ---
   EVAPOTRANSPIRATION =         907210.58     EVAPOTRANSPIRATION =           6513.99
           STREAMFLOW =         432817.56             STREAMFLOW =           9861.39
     GW BOUNDARY FLOW =          40541.74       GW BOUNDARY FLOW =            724.17

   INFLOWS - OUTFLOWS =         268246.25     INFLOWS - OUTFLOWS =         -17099.55
             --------                                   --------

 TOTAL STORAGE CHANGE =          52623.45         STORAGE CHANGE =         -87506.31
       --------------                             --------------
         LAND SURFACE =         112334.03           LAND SURFACE =         -74046.53
            SOIL ZONE =        1154576.90              SOIL ZONE =           7377.59
     UNSATURATED ZONE =       -1010233.95       UNSATURATED ZONE =         -15332.75
       SATURATED ZONE =        -204053.52         SATURATED ZONE =          -5504.61

 OVERALL BUDGET ERROR =         215622.80           BUDGET ERROR =          70406.76

  ***WARNING, CUMULATIVE VOLUME OFF > 5%
  ***CAUTION, FLUX RATES OFF > 10%

  PERCENT DISCREPANCY =             13.99    PERCENT DISCREPANCY =            134.61



1
 SUMMARY VOLUMETRIC BUDGET FOR GSFLOW 
 DATE: 12 02 1980              CUMULATIVE TIME STEP:      63
 MODFLOW STRESS PERIOD      2     CURRENT TIME STEP:      63     ITERATIONS:      26

 -----------------------------------------------------------------------------------

   CUMULATIVE VOLUMES               L**3   RATES FOR THIS TIME STEP           L**3/T
   ------------------                      ------------------------

                                     IN                                         IN
                                     --                                         --
        PRECIPITATION =        2076621.55          PRECIPITATION =                  
           STREAMFLOW =                               STREAMFLOW =                  
     GW BOUNDARY FLOW =                         GW BOUNDARY FLOW =                  


                                    OUT                                        OUT
                                    ---                                        ---
   EVAPOTRANSPIRATION =        1048183.17     EVAPOTRANSPIRATION =          23899.55
           STREAMFLOW =         513550.97             STREAMFLOW =          12637.64
     GW BOUNDARY FLOW =          45612.44       GW BOUNDARY FLOW =            724.65

   INFLOWS - OUTFLOWS =         469274.97     INFLOWS - OUTFLOWS =         -37261.84
             --------                                   --------

 TOTAL STORAGE CHANGE =          40261.21         STORAGE CHANGE =        -380951.75
       --------------                             --------------
         LAND SURFACE =         123719.56           LAND SURFACE =        -348708.31
            SOIL ZONE =        1270471.71              SOIL ZONE =         -12579.79
     UNSATURATED ZONE =       -1112094.36       UNSATURATED ZONE =         -14219.52
       SATURATED ZONE =        -241835.71         SATURATED ZONE =          -5444.13

 OVERALL BUDGET ERROR =         429013.77           BUDGET ERROR =         343689.91

  ***WARNING, CUMULATIVE VOLUME OFF > 5%
  ***CAUTION, FLUX RATES OFF > 10%

  PERCENT DISCREPANCY =             23.04    PERCENT DISCREPANCY =            164.36



1
 SUMMARY VOLUMETRIC BUDGET FOR GSFLOW 
 DATE: 12 09 1980              CUMULATIVE TIME STEP:      70
 MODFLOW STRESS PERIOD      2     CURRENT TIME STEP:      70     ITERATIONS:       7

 -----------------------------------------------------------------------------------

   CUMULATIVE VOLUMES               L**3   RATES FOR THIS TIME STEP           L**3/T
   ------------------                      ------------------------

                                     IN                                         IN
                                     --                                         --
        PRECIPITATION =        4284363.63          PRECIPITATION =                  
           STREAMFLOW =                               STREAMFLOW =                  
     GW BOUNDARY FLOW =                         GW BOUNDARY FLOW =                  


                                    OUT                                        OUT
                                    ---                                        ---
   EVAPOTRANSPIRATION =        1072967.97     EVAPOTRANSPIRATION =           2691.23
           STREAMFLOW =         602967.59             STREAMFLOW =          13402.91
     GW BOUNDARY FLOW =          50685.32       GW BOUNDARY FLOW =            724.78

   INFLOWS - OUTFLOWS =        2557742.75     INFLOWS - OUTFLOWS =         -16818.92
             --------                                   --------

 TOTAL STORAGE CHANGE =        1.3031D+07         STORAGE CHANGE =         -35885.61
       --------------                             --------------
         LAND SURFACE =        1.3208D+07           LAND SURFACE =         -21776.69
            SOIL ZONE =        1319589.62              SOIL ZONE =           6108.28
     UNSATURATED ZONE =       -1212930.24       UNSATURATED ZONE =         -14161.82
       SATURATED ZONE =        -283392.23         SATURATED ZONE =          -6055.37

 OVERALL BUDGET ERROR =       -1.0473D+07           BUDGET ERROR =          19066.69

  ***WARNING, CUMULATIVE VOLUME OFF > 5%
  ***CAUTION, FLUX RATES OFF > 10%

  PERCENT DISCREPANCY =           -110.00    PERCENT DISCREPANCY =             72.35



1
 SUMMARY VOLUMETRIC BUDGET FOR GSFLOW 
 DATE: 12 16 1980              CUMULATIVE TIME STEP:      77
 MODFLOW STRESS PERIOD      2     CURRENT TIME STEP:      77     ITERATIONS:      26

 -----------------------------------------------------------------------------------

   CUMULATIVE VOLUMES               L**3   RATES FOR THIS TIME STEP           L**3/T
   ------------------                      ------------------------

                                     IN                                         IN
                                     --                                         --
        PRECIPITATION =        4284363.63          PRECIPITATION =                  
           STREAMFLOW =                               STREAMFLOW =                  
     GW BOUNDARY FLOW =                         GW BOUNDARY FLOW =                  


                                    OUT                                        OUT
                                    ---                                        ---
   EVAPOTRANSPIRATION =        1207918.12     EVAPOTRANSPIRATION =          36028.82
           STREAMFLOW =         713146.41             STREAMFLOW =          20163.83
     GW BOUNDARY FLOW =          55760.49       GW BOUNDARY FLOW =            725.49

   INFLOWS - OUTFLOWS =        2307538.60     INFLOWS - OUTFLOWS =         -56918.14
             --------                                   --------

 TOTAL STORAGE CHANGE =        7374225.64         STORAGE CHANGE =       -2541140.63
       --------------                             --------------
         LAND SURFACE =        7538675.99           LAND SURFACE =       -2564172.44
            SOIL ZONE =        1464039.88              SOIL ZONE =          38375.41
     UNSATURATED ZONE =       -1303371.18       UNSATURATED ZONE =         -10133.81
       SATURATED ZONE =        -325119.04         SATURATED ZONE =          -5209.80

 OVERALL BUDGET ERROR =       -5066687.04           BUDGET ERROR =        2484222.49

  ***WARNING, CUMULATIVE VOLUME OFF > 5%
  ***CAUTION, FLUX RATES OFF > 10%

  PERCENT DISCREPANCY =            -74.32    PERCENT DISCREPANCY =            191.24



1
 SUMMARY VOLUMETRIC BUDGET FOR GSFLOW 
 DATE: 12 23 1980              CUMULATIVE TIME STEP:      84
 MODFLOW STRESS PERIOD      2     CURRENT TIME STEP:      84     ITERATIONS:       5

 -----------------------------------------------------------------------------------

   CUMULATIVE VOLUMES               L**3   RATES FOR THIS TIME STEP           L**3/T
   ------------------                      ------------------------

                                     IN                                         IN
                                     --                                         --
        PRECIPITATION =        4516757.54          PRECIPITATION =                  
           STREAMFLOW =                               STREAMFLOW =                  
     GW BOUNDARY FLOW =                         GW BOUNDARY FLOW =                  


                                    OUT                                        OUT
                                    ---                                        ---
   EVAPOTRANSPIRATION =        1422493.61     EVAPOTRANSPIRATION =          32343.65
           STREAMFLOW =         848922.38             STREAMFLOW =          18627.69
     GW BOUNDARY FLOW =          60841.21       GW BOUNDARY FLOW =            725.97

   INFLOWS - OUTFLOWS =        2184500.34     INFLOWS - OUTFLOWS =         -51697.32
             --------                                   --------

 TOTAL STORAGE CHANGE =        2275041.86         STORAGE CHANGE =        -109926.83
       --------------                             --------------
         LAND SURFACE =        2461302.15           LAND SURFACE =         -63453.93
            SOIL ZONE =        1560250.83              SOIL ZONE =         -28867.52
     UNSATURATED ZONE =       -1379034.35       UNSATURATED ZONE =         -11145.95
       SATURATED ZONE =        -367476.78         SATURATED ZONE =          -6459.44

 OVERALL BUDGET ERROR =         -90541.52           BUDGET ERROR =          58229.52

  ***CAUTION, FLUX RATES OFF > 10%

  PERCENT DISCREPANCY =             -1.98    PERCENT DISCREPANCY =             72.06



1
 SUMMARY VOLUMETRIC BUDGET FOR GSFLOW 
 DATE: 12 30 1980              CUMULATIVE TIME STEP:      91
 MODFLOW STRESS PERIOD      2     CURRENT TIME STEP:      91     ITERATIONS:       5

 -----------------------------------------------------------------------------------

   CUMULATIVE VOLUMES               L**3   RATES FOR THIS TIME STEP           L**3/T
   ------------------                      ------------------------

                                     IN                                         IN
                                     --                                         --
        PRECIPITATION =        4516757.54          PRECIPITATION =                  
           STREAMFLOW =                               STREAMFLOW =                  
     GW BOUNDARY FLOW =                         GW BOUNDARY FLOW =                  


                                    OUT                                        OUT
                                    ---                                        ---
   EVAPOTRANSPIRATION =        1730509.94     EVAPOTRANSPIRATION =          33290.72
           STREAMFLOW =         951255.39             STREAMFLOW =          11228.07
     GW BOUNDARY FLOW =          65919.32       GW BOUNDARY FLOW =            724.92

   INFLOWS - OUTFLOWS =        1769072.89     INFLOWS - OUTFLOWS =         -45243.71
             --------                                   --------

 TOTAL STORAGE CHANGE =         -88220.25         STORAGE CHANGE =         -50422.80
       --------------                             --------------
         LAND SURFACE =         421177.55           LAND SURFACE =          -6200.73
            SOIL ZONE =        1370535.23              SOIL ZONE =         -24227.33
     UNSATURATED ZONE =       -1459972.02       UNSATURATED ZONE =         -12049.53
       SATURATED ZONE =        -419961.01         SATURATED ZONE =          -7945.21

 OVERALL BUDGET ERROR =        1857293.14           BUDGET ERROR =           5179.09

  ***WARNING, CUMULATIVE VOLUME OFF > 5%
  ***CAUTION, FLUX RATES OFF > 10%

  PERCENT DISCREPANCY =             50.52    PERCENT DISCREPANCY =             10.83



1
 SUMMARY VOLUMETRIC BUDGET FOR GSFLOW 
 DATE: 01 06 1981              CUMULATIVE TIME STEP:      98
 MODFLOW STRESS PERIOD      2     CURRENT TIME STEP:      98     ITERATIONS:       6

 -----------------------------------------------------------------------------------

   CUMULATIVE VOLUMES               L**3   RATES FOR THIS TIME STEP           L**3/T
   ------------------                      ------------------------

                                     IN                                         IN
                                     --                                         --
        PRECIPITATION =        5004445.43          PRECIPITATION =                  
           STREAMFLOW =                               STREAMFLOW =                  
     GW BOUNDARY FLOW =                         GW BOUNDARY FLOW =                  


                                    OUT                                        OUT
                                    ---                                        ---
   EVAPOTRANSPIRATION =        1880940.35     EVAPOTRANSPIRATION =          14029.61
           STREAMFLOW =        1026641.48             STREAMFLOW =          11617.45
     GW BOUNDARY FLOW =          70991.45       GW BOUNDARY FLOW =            724.60

   INFLOWS - OUTFLOWS =        2025872.16     INFLOWS - OUTFLOWS =         -26371.66
             --------                                   --------

 TOTAL STORAGE CHANGE =        2035595.02         STORAGE CHANGE =        -102852.47
       --------------                             --------------
         LAND SURFACE =        2621467.22           LAND SURFACE =         -88543.23
            SOIL ZONE =        1434754.60              SOIL ZONE =           5597.11
     UNSATURATED ZONE =       -1544806.87       UNSATURATED ZONE =         -12037.19
       SATURATED ZONE =        -475819.92         SATURATED ZONE =          -7869.16

 OVERALL BUDGET ERROR =          -9722.87           BUDGET ERROR =          76480.81

  ***CAUTION, FLUX RATES OFF > 10%

  PERCENT DISCREPANCY =             -0.19    PERCENT DISCREPANCY =            118.37



1
 SUMMARY VOLUMETRIC BUDGET FOR GSFLOW 
 DATE: 01 13 1981              CUMULATIVE TIME STEP:     105
 MODFLOW STRESS PERIOD      2     CURRENT TIME STEP:     105     ITERATIONS:      17

 -----------------------------------------------------------------------------------

   CUMULATIVE VOLUMES               L**3   RATES FOR THIS TIME STEP           L**3/T
   ------------------                      ------------------------

                                     IN                                         IN
                                     --                                         --
        PRECIPITATION =        5004445.43          PRECIPITATION =                  
           STREAMFLOW =                               STREAMFLOW =                  
     GW BOUNDARY FLOW =                         GW BOUNDARY FLOW =                  


                                    OUT                                        OUT
                                    ---                                        ---
   EVAPOTRANSPIRATION =        2034429.56     EVAPOTRANSPIRATION =          30616.93
           STREAMFLOW =        1114121.97             STREAMFLOW =          12863.50
     GW BOUNDARY FLOW =          76064.48       GW BOUNDARY FLOW =            724.79

   INFLOWS - OUTFLOWS =        1779829.42     INFLOWS - OUTFLOWS =         -44205.22
             --------                                   --------

 TOTAL STORAGE CHANGE =         257573.35         STORAGE CHANGE =        -347452.43
       --------------                             --------------
         LAND SURFACE =        1003443.27           LAND SURFACE =        -315307.15
            SOIL ZONE =        1413740.41              SOIL ZONE =         -12251.33
     UNSATURATED ZONE =       -1627412.55       UNSATURATED ZONE =         -11560.04
       SATURATED ZONE =        -532197.78         SATURATED ZONE =          -8333.90

 OVERALL BUDGET ERROR =        1522256.07           BUDGET ERROR =         303247.21

  ***WARNING, CUMULATIVE VOLUME OFF > 5%
  ***CAUTION, FLUX RATES OFF > 10%

  PERCENT DISCREPANCY =             35.87    PERCENT DISCREPANCY =            154.85



1
 SUMMARY VOLUMETRIC BUDGET FOR GSFLOW 
 DATE: 01 20 1981              CUMULATIVE TIME STEP:     112
 MODFLOW STRESS PERIOD      2     CURRENT TIME STEP:     112     ITERATIONS:       5

 -----------------------------------------------------------------------------------

   CUMULATIVE VOLUMES               L**3   RATES FOR THIS TIME STEP           L**3/T
   ------------------                      ------------------------

                                     IN                                         IN
                                     --                                         --
        PRECIPITATION =        5170466.84          PRECIPITATION =          41505.35
           STREAMFLOW =                               STREAMFLOW =                  
     GW BOUNDARY FLOW =                         GW BOUNDARY FLOW =                  


                                    OUT                                        OUT
                                    ---                                        ---
   EVAPOTRANSPIRATION =        2224285.57     EVAPOTRANSPIRATION =          24082.67
           STREAMFLOW =        1204792.97             STREAMFLOW =          13323.56
     GW BOUNDARY FLOW =          81138.08       GW BOUNDARY FLOW =            724.83

   INFLOWS - OUTFLOWS =        1660250.23     INFLOWS - OUTFLOWS =           3374.29
             --------                                   --------

 TOTAL STORAGE CHANGE =        -273521.65         STORAGE CHANGE =           -348.81
       --------------                             --------------
         LAND SURFACE =         584538.97           LAND SURFACE =          -7676.87
            SOIL ZONE =        1437758.19              SOIL ZONE =          26261.83
     UNSATURATED ZONE =       -1703547.59       UNSATURATED ZONE =         -10218.43
       SATURATED ZONE =        -592271.22         SATURATED ZONE =          -8715.34

 OVERALL BUDGET ERROR =        1933771.87           BUDGET ERROR =           3723.10

  ***WARNING, CUMULATIVE VOLUME OFF > 5%
  ***WARNING, FLUX RATES OFF > 3%

  PERCENT DISCREPANCY =             43.19    PERCENT DISCREPANCY =              9.31



1
 SUMMARY VOLUMETRIC BUDGET FOR GSFLOW 
 DATE: 01 27 1981              CUMULATIVE TIME STEP:     119
 MODFLOW STRESS PERIOD      2     CURRENT TIME STEP:     119     ITERATIONS:       5

 -----------------------------------------------------------------------------------

   CUMULATIVE VOLUMES               L**3   RATES FOR THIS TIME STEP           L**3/T
   ------------------                      ------------------------

                                     IN                                         IN
                                     --                                         --
        PRECIPITATION =        8646540.08          PRECIPITATION =        2936503.63
           STREAMFLOW =                               STREAMFLOW =                  
     GW BOUNDARY FLOW =                         GW BOUNDARY FLOW =                  


                                    OUT                                        OUT
                                    ---                                        ---
   EVAPOTRANSPIRATION =        2389940.55     EVAPOTRANSPIRATION =          12639.57
           STREAMFLOW =        1302806.49             STREAMFLOW =          14062.84
     GW BOUNDARY FLOW =          86212.86       GW BOUNDARY FLOW =            725.01

   INFLOWS - OUTFLOWS =        4867580.17     INFLOWS - OUTFLOWS =        2909076.21
             --------                                   --------

 TOTAL STORAGE CHANGE =        1.8837D+07         STORAGE CHANGE =        1.7528D+07
       --------------                             --------------
         LAND SURFACE =        1.9709D+07           LAND SURFACE =        1.7543D+07
            SOIL ZONE =        1550176.32              SOIL ZONE =           3950.65
     UNSATURATED ZONE =       -1768563.62       UNSATURATED ZONE =          -9889.23
       SATURATED ZONE =        -653329.16         SATURATED ZONE =          -8827.12

 OVERALL BUDGET ERROR =       -1.3970D+07           BUDGET ERROR =       -1.4619D+07

  ***WARNING, CUMULATIVE VOLUME OFF > 5%
  ***CAUTION, FLUX RATES OFF > 10%

  PERCENT DISCREPANCY =            -89.37    PERCENT DISCREPANCY =           -142.68



1
 SUMMARY VOLUMETRIC BUDGET FOR GSFLOW 
 DATE: 02 03 1981              CUMULATIVE TIME STEP:     126
 MODFLOW STRESS PERIOD      2     CURRENT TIME STEP:     126     ITERATIONS:       5

 -----------------------------------------------------------------------------------

   CUMULATIVE VOLUMES               L**3   RATES FOR THIS TIME STEP           L**3/T
   ------------------                      ------------------------

                                     IN                                         IN
                                     --                                         --
        PRECIPITATION =        1.1739D+07          PRECIPITATION =                  
           STREAMFLOW =                               STREAMFLOW =                  
     GW BOUNDARY FLOW =                         GW BOUNDARY FLOW =                  


                                    OUT                                        OUT
                                    ---                                        ---
   EVAPOTRANSPIRATION =        2423808.97     EVAPOTRANSPIRATION =           6018.83
           STREAMFLOW =        1405798.44             STREAMFLOW =          15216.38
     GW BOUNDARY FLOW =          91288.36       GW BOUNDARY FLOW =            725.13

   INFLOWS - OUTFLOWS =        7817793.00     INFLOWS - OUTFLOWS =         -21960.35
             --------                                   --------

 TOTAL STORAGE CHANGE =        3.7077D+07         STORAGE CHANGE =         -53408.56
       --------------                             --------------
         LAND SURFACE =        3.8056D+07           LAND SURFACE =         -37489.19
            SOIL ZONE =        1575768.83              SOIL ZONE =           3247.38
     UNSATURATED ZONE =       -1839348.05       UNSATURATED ZONE =         -10074.86
       SATURATED ZONE =        -716049.66         SATURATED ZONE =          -9091.89

 OVERALL BUDGET ERROR =       -2.9259D+07           BUDGET ERROR =          31448.21

  ***WARNING, CUMULATIVE VOLUME OFF > 5%
  ***CAUTION, FLUX RATES OFF > 10%

  PERCENT DISCREPANCY =           -110.96    PERCENT DISCREPANCY =             83.45



1
 SUMMARY VOLUMETRIC BUDGET FOR GSFLOW 
 DATE: 02 10 1981              CUMULATIVE TIME STEP:     133
 MODFLOW STRESS PERIOD      2     CURRENT TIME STEP:     133     ITERATIONS:       5

 -----------------------------------------------------------------------------------

   CUMULATIVE VOLUMES               L**3   RATES FOR THIS TIME STEP           L**3/T
   ------------------                      ------------------------

                                     IN                                         IN
                                     --                                         --
        PRECIPITATION =        1.1838D+07          PRECIPITATION =                  
           STREAMFLOW =                               STREAMFLOW =                  
     GW BOUNDARY FLOW =                         GW BOUNDARY FLOW =                  


                                    OUT                                        OUT
                                    ---                                        ---
   EVAPOTRANSPIRATION =        2526916.46     EVAPOTRANSPIRATION =          24465.99
           STREAMFLOW =        1515636.91             STREAMFLOW =          15973.52
     GW BOUNDARY FLOW =          96364.84       GW BOUNDARY FLOW =            725.26

   INFLOWS - OUTFLOWS =        7699335.07     INFLOWS - OUTFLOWS =         -41164.77
             --------                                   --------

 TOTAL STORAGE CHANGE =        3.6926D+07         STORAGE CHANGE =        -177000.00
       --------------                             --------------
         LAND SURFACE =        3.8021D+07           LAND SURFACE =        -160322.58
            SOIL ZONE =        1594661.72              SOIL ZONE =           2363.12
     UNSATURATED ZONE =       -1908055.81       UNSATURATED ZONE =          -9609.55
       SATURATED ZONE =        -780998.57         SATURATED ZONE =          -9430.99

 OVERALL BUDGET ERROR =       -2.9227D+07           BUDGET ERROR =         135835.23

  ***WARNING, CUMULATIVE VOLUME OFF > 5%
  ***CAUTION, FLUX RATES OFF > 10%

  PERCENT DISCREPANCY =           -110.49    PERCENT DISCREPANCY =            124.53



1
 SUMMARY VOLUMETRIC BUDGET FOR GSFLOW 
 DATE: 02 17 1981              CUMULATIVE TIME STEP:     140
 MODFLOW STRESS PERIOD      2     CURRENT TIME STEP:     140     ITERATIONS:      27

 -----------------------------------------------------------------------------------

   CUMULATIVE VOLUMES               L**3   RATES FOR THIS TIME STEP           L**3/T
   ------------------                      ------------------------

                                     IN                                         IN
                                     --                                         --
        PRECIPITATION =        1.2765D+07          PRECIPITATION =          68929.28
           STREAMFLOW =                               STREAMFLOW =                  
     GW BOUNDARY FLOW =                         GW BOUNDARY FLOW =                  


                                    OUT                                        OUT
                                    ---                                        ---
   EVAPOTRANSPIRATION =        2877880.49     EVAPOTRANSPIRATION =          72542.67
           STREAMFLOW =        2062212.27             STREAMFLOW =          80239.20
     GW BOUNDARY FLOW =         101477.66       GW BOUNDARY FLOW =            733.28

   INFLOWS - OUTFLOWS =        7723398.69     INFLOWS - OUTFLOWS =         -84585.87
             --------                                   --------

 TOTAL STORAGE CHANGE =        8595656.18         STORAGE CHANGE =       -3885055.91
       --------------                             --------------
         LAND SURFACE =        8415591.66           LAND SURFACE =       -3919238.87
            SOIL ZONE =        2707470.89              SOIL ZONE =          -8602.64
     UNSATURATED ZONE =       -1730224.31       UNSATURATED ZONE =          44243.56
       SATURATED ZONE =        -797182.07         SATURATED ZONE =          -1457.96

 OVERALL BUDGET ERROR =        -872257.49           BUDGET ERROR =        3800470.04

  ***WARNING, CUMULATIVE VOLUME OFF > 5%
  ***CAUTION, FLUX RATES OFF > 10%

  PERCENT DISCREPANCY =             -6.61    PERCENT DISCREPANCY =            185.05



1
 SUMMARY VOLUMETRIC BUDGET FOR GSFLOW 
 DATE: 02 24 1981              CUMULATIVE TIME STEP:     147
 MODFLOW STRESS PERIOD      2     CURRENT TIME STEP:     147     ITERATIONS:       8

 -----------------------------------------------------------------------------------

   CUMULATIVE VOLUMES               L**3   RATES FOR THIS TIME STEP           L**3/T
   ------------------                      ------------------------

                                     IN                                         IN
                                     --                                         --
        PRECIPITATION =        1.3179D+07          PRECIPITATION =         344646.37
           STREAMFLOW =                               STREAMFLOW =                  
     GW BOUNDARY FLOW =                         GW BOUNDARY FLOW =                  


                                    OUT                                        OUT
                                    ---                                        ---
   EVAPOTRANSPIRATION =        3263546.70     EVAPOTRANSPIRATION =          18156.56
           STREAMFLOW =        2331799.63             STREAMFLOW =          24106.88
     GW BOUNDARY FLOW =         106587.33       GW BOUNDARY FLOW =            728.18

   INFLOWS - OUTFLOWS =        7476611.09     INFLOWS - OUTFLOWS =         301654.74
             --------                                   --------

 TOTAL STORAGE CHANGE =        7479037.55         STORAGE CHANGE =        2471659.41
       --------------                             --------------
         LAND SURFACE =        7526517.73           LAND SURFACE =        2437551.83
            SOIL ZONE =        2387338.52              SOIL ZONE =          40402.31
     UNSATURATED ZONE =       -1606974.33       UNSATURATED ZONE =            257.06
       SATURATED ZONE =        -827844.38         SATURATED ZONE =          -6551.78

 OVERALL BUDGET ERROR =          -2426.45           BUDGET ERROR =       -2170004.68

  ***CAUTION, FLUX RATES OFF > 10%

  PERCENT DISCREPANCY =             -0.02    PERCENT DISCREPANCY =           -151.79



1
 SUMMARY VOLUMETRIC BUDGET FOR GSFLOW 
 DATE: 03 03 1981              CUMULATIVE TIME STEP:     154
 MODFLOW STRESS PERIOD      2     CURRENT TIME STEP:     154     ITERATIONS:      21

 -----------------------------------------------------------------------------------

   CUMULATIVE VOLUMES               L**3   RATES FOR THIS TIME STEP           L**3/T
   ------------------                      ------------------------

                                     IN                                         IN
                                     --                                         --
        PRECIPITATION =        1.3447D+07          PRECIPITATION =                  
           STREAMFLOW =                               STREAMFLOW =                  
     GW BOUNDARY FLOW =                         GW BOUNDARY FLOW =                  


                                    OUT                                        OUT
                                    ---                                        ---
   EVAPOTRANSPIRATION =        3409073.50     EVAPOTRANSPIRATION =          48020.83
           STREAMFLOW =        2475252.21             STREAMFLOW =          19409.54
     GW BOUNDARY FLOW =         111676.35       GW BOUNDARY FLOW =            726.50

   INFLOWS - OUTFLOWS =        7450600.99     INFLOWS - OUTFLOWS =         -68156.87
             --------                                   --------

 TOTAL STORAGE CHANGE =        6708866.38         STORAGE CHANGE =        -580497.78
       --------------                             --------------
         LAND SURFACE =        6931624.16           LAND SURFACE =        -531392.14
            SOIL ZONE =        2312439.48              SOIL ZONE =         -32737.63
     UNSATURATED ZONE =       -1653438.39       UNSATURATED ZONE =          -8039.84
       SATURATED ZONE =        -881758.87         SATURATED ZONE =          -8328.17

 OVERALL BUDGET ERROR =         741734.61           BUDGET ERROR =         512340.91

  ***WARNING, CUMULATIVE VOLUME OFF > 5%
  ***CAUTION, FLUX RATES OFF > 10%

  PERCENT DISCREPANCY =              5.67    PERCENT DISCREPANCY =            157.97



1
 SUMMARY VOLUMETRIC BUDGET FOR GSFLOW 
 DATE: 03 10 1981              CUMULATIVE TIME STEP:     161
 MODFLOW STRESS PERIOD      2     CURRENT TIME STEP:     161     ITERATIONS:      11

 -----------------------------------------------------------------------------------

   CUMULATIVE VOLUMES               L**3   RATES FOR THIS TIME STEP           L**3/T
   ------------------                      ------------------------

                                     IN                                         IN
                                     --                                         --
        PRECIPITATION =        1.3493D+07          PRECIPITATION =                  
           STREAMFLOW =                               STREAMFLOW =                  
     GW BOUNDARY FLOW =                         GW BOUNDARY FLOW =                  


                                    OUT                                        OUT
                                    ---                                        ---
   EVAPOTRANSPIRATION =        3765297.54     EVAPOTRANSPIRATION =          76728.37
           STREAMFLOW =        2596679.23             STREAMFLOW =          14455.87
     GW BOUNDARY FLOW =         116758.24       GW BOUNDARY FLOW =            725.51

   INFLOWS - OUTFLOWS =        7014206.14     INFLOWS - OUTFLOWS =         -91909.75
             --------                                   --------

 TOTAL STORAGE CHANGE =        4476284.25         STORAGE CHANGE =        -337835.27
       --------------                             --------------
         LAND SURFACE =        5025382.00           LAND SURFACE =        -267302.50
            SOIL ZONE =        2106886.79              SOIL ZONE =         -51909.27
     UNSATURATED ZONE =       -1711172.13       UNSATURATED ZONE =          -8737.64
       SATURATED ZONE =        -944812.42         SATURATED ZONE =          -9885.85

 OVERALL BUDGET ERROR =        2537921.90           BUDGET ERROR =         245925.51

  ***WARNING, CUMULATIVE VOLUME OFF > 5%
  ***CAUTION, FLUX RATES OFF > 10%

  PERCENT DISCREPANCY =             20.76    PERCENT DISCREPANCY =            114.45



1
 SUMMARY VOLUMETRIC BUDGET FOR GSFLOW 
 DATE: 03 17 1981              CUMULATIVE TIME STEP:     168
 MODFLOW STRESS PERIOD      2     CURRENT TIME STEP:     168     ITERATIONS:       6

 -----------------------------------------------------------------------------------

   CUMULATIVE VOLUMES               L**3   RATES FOR THIS TIME STEP           L**3/T
   ------------------                      ------------------------

                                     IN                                         IN
                                     --                                         --
        PRECIPITATION =        1.3744D+07          PRECIPITATION =                  
           STREAMFLOW =                               STREAMFLOW =                  
     GW BOUNDARY FLOW =                         GW BOUNDARY FLOW =                  


                                    OUT                                        OUT
                                    ---                                        ---
   EVAPOTRANSPIRATION =        4084920.00     EVAPOTRANSPIRATION =          32909.74
           STREAMFLOW =        2688849.70             STREAMFLOW =          12702.13
     GW BOUNDARY FLOW =         121833.20       GW BOUNDARY FLOW =            724.75

   INFLOWS - OUTFLOWS =        6848887.98     INFLOWS - OUTFLOWS =         -46336.62
             --------                                   --------

 TOTAL STORAGE CHANGE =        5530403.15         STORAGE CHANGE =        -115149.94
       --------------                             --------------
         LAND SURFACE =        6310375.96           LAND SURFACE =         -69025.40
            SOIL ZONE =        2018234.23              SOIL ZONE =         -25645.60
     UNSATURATED ZONE =       -1780924.82       UNSATURATED ZONE =          -9850.51
       SATURATED ZONE =       -1017282.23         SATURATED ZONE =         -10628.43

 OVERALL BUDGET ERROR =        1318484.83           BUDGET ERROR =          68813.32

  ***WARNING, CUMULATIVE VOLUME OFF > 5%
  ***CAUTION, FLUX RATES OFF > 10%

  PERCENT DISCREPANCY =             10.08    PERCENT DISCREPANCY =             85.22



1
 SUMMARY VOLUMETRIC BUDGET FOR GSFLOW 
 DATE: 03 24 1981              CUMULATIVE TIME STEP:     175
 MODFLOW STRESS PERIOD      2     CURRENT TIME STEP:     175     ITERATIONS:      24

 -----------------------------------------------------------------------------------

   CUMULATIVE VOLUMES               L**3   RATES FOR THIS TIME STEP           L**3/T
   ------------------                      ------------------------

                                     IN                                         IN
                                     --                                         --
        PRECIPITATION =        1.4367D+07          PRECIPITATION =                  
           STREAMFLOW =                               STREAMFLOW =                  
     GW BOUNDARY FLOW =                         GW BOUNDARY FLOW =                  


                                    OUT                                        OUT
                                    ---                                        ---
   EVAPOTRANSPIRATION =        4402355.38     EVAPOTRANSPIRATION =          79356.27
           STREAMFLOW =        2794997.93             STREAMFLOW =          14959.94
     GW BOUNDARY FLOW =         126906.90       GW BOUNDARY FLOW =            724.89

   INFLOWS - OUTFLOWS =        7042485.30     INFLOWS - OUTFLOWS =         -95041.09
             --------                                   --------

 TOTAL STORAGE CHANGE =        5706006.32         STORAGE CHANGE =        -381994.22
       --------------                             --------------
         LAND SURFACE =        6661471.49           LAND SURFACE =        -296012.80
            SOIL ZONE =        1973809.64              SOIL ZONE =         -66165.09
     UNSATURATED ZONE =       -1839926.10       UNSATURATED ZONE =          -8802.39
       SATURATED ZONE =       -1089348.70         SATURATED ZONE =         -11013.94

 OVERALL BUDGET ERROR =        1336478.98           BUDGET ERROR =         286953.12

  ***WARNING, CUMULATIVE VOLUME OFF > 5%
  ***CAUTION, FLUX RATES OFF > 10%

  PERCENT DISCREPANCY =              9.76    PERCENT DISCREPANCY =            120.31



1
 SUMMARY VOLUMETRIC BUDGET FOR GSFLOW 
 DATE: 03 31 1981              CUMULATIVE TIME STEP:     182
 MODFLOW STRESS PERIOD      2     CURRENT TIME STEP:     182     ITERATIONS:      26

 -----------------------------------------------------------------------------------

   CUMULATIVE VOLUMES               L**3   RATES FOR THIS TIME STEP           L**3/T
   ------------------                      ------------------------

                                     IN                                         IN
                                     --                                         --
        PRECIPITATION =        1.5777D+07          PRECIPITATION =                  
           STREAMFLOW =                               STREAMFLOW =                  
     GW BOUNDARY FLOW =                         GW BOUNDARY FLOW =                  


                                    OUT                                        OUT
                                    ---                                        ---
   EVAPOTRANSPIRATION =        4790528.68     EVAPOTRANSPIRATION =          42424.06
           STREAMFLOW =        3088782.20             STREAMFLOW =          21868.94
     GW BOUNDARY FLOW =         132000.17       GW BOUNDARY FLOW =            726.58

   INFLOWS - OUTFLOWS =        7765436.94     INFLOWS - OUTFLOWS =         -65019.58
             --------                                   --------

 TOTAL STORAGE CHANGE =        5267848.75         STORAGE CHANGE =        -443410.28
       --------------                             --------------
         LAND SURFACE =        5845773.31           LAND SURFACE =        -382040.99
            SOIL ZONE =        2270923.38              SOIL ZONE =         -49519.19
     UNSATURATED ZONE =       -1711599.29       UNSATURATED ZONE =          -2384.71
       SATURATED ZONE =       -1137248.65         SATURATED ZONE =          -9465.39

 OVERALL BUDGET ERROR =        2497588.19           BUDGET ERROR =         378390.70

  ***WARNING, CUMULATIVE VOLUME OFF > 5%
  ***CAUTION, FLUX RATES OFF > 10%

  PERCENT DISCREPANCY =             17.19    PERCENT DISCREPANCY =            148.85



1
 SUMMARY VOLUMETRIC BUDGET FOR GSFLOW 
 DATE: 04 07 1981              CUMULATIVE TIME STEP:     189
 MODFLOW STRESS PERIOD      2     CURRENT TIME STEP:     189     ITERATIONS:       7

 -----------------------------------------------------------------------------------

   CUMULATIVE VOLUMES               L**3   RATES FOR THIS TIME STEP           L**3/T
   ------------------                      ------------------------

                                     IN                                         IN
                                     --                                         --
        PRECIPITATION =        1.6121D+07          PRECIPITATION =                  
           STREAMFLOW =                               STREAMFLOW =                  
     GW BOUNDARY FLOW =                         GW BOUNDARY FLOW =                  


                                    OUT                                        OUT
                                    ---                                        ---
   EVAPOTRANSPIRATION =        5384238.73     EVAPOTRANSPIRATION =          96549.10
           STREAMFLOW =        3232517.03             STREAMFLOW =          12648.33
     GW BOUNDARY FLOW =         137081.08       GW BOUNDARY FLOW =            724.86

   INFLOWS - OUTFLOWS =        7367630.77     INFLOWS - OUTFLOWS =        -109922.28
             --------                                   --------

 TOTAL STORAGE CHANGE =        2608194.05         STORAGE CHANGE =        -152018.25
       --------------                             --------------
         LAND SURFACE =        3652242.98           LAND SURFACE =         -48016.35
            SOIL ZONE =        1913820.56              SOIL ZONE =         -83633.82
     UNSATURATED ZONE =       -1753456.90       UNSATURATED ZONE =          -9167.77
       SATURATED ZONE =       -1204412.59         SATURATED ZONE =         -11200.31

 OVERALL BUDGET ERROR =        4759436.72           BUDGET ERROR =          42095.97

  ***WARNING, CUMULATIVE VOLUME OFF > 5%
  ***CAUTION, FLUX RATES OFF > 10%

  PERCENT DISCREPANCY =             34.63    PERCENT DISCREPANCY =             32.14



1
 SUMMARY VOLUMETRIC BUDGET FOR GSFLOW 
 DATE: 04 14 1981              CUMULATIVE TIME STEP:     196
 MODFLOW STRESS PERIOD      2     CURRENT TIME STEP:     196     ITERATIONS:      26

 -----------------------------------------------------------------------------------

   CUMULATIVE VOLUMES               L**3   RATES FOR THIS TIME STEP           L**3/T
   ------------------                      ------------------------

                                     IN                                         IN
                                     --                                         --
        PRECIPITATION =        1.6121D+07          PRECIPITATION =                  
           STREAMFLOW =                               STREAMFLOW =                  
     GW BOUNDARY FLOW =                         GW BOUNDARY FLOW =                  


                                    OUT                                        OUT
                                    ---                                        ---
   EVAPOTRANSPIRATION =        6155433.85     EVAPOTRANSPIRATION =         156200.01
           STREAMFLOW =        3296052.25             STREAMFLOW =           8054.85
     GW BOUNDARY FLOW =         142148.66       GW BOUNDARY FLOW =            723.49

   INFLOWS - OUTFLOWS =        6527832.85     INFLOWS - OUTFLOWS =        -164978.35
             --------                                   --------

 TOTAL STORAGE CHANGE =         358396.00         STORAGE CHANGE =       -1028930.72
       --------------                             --------------
         LAND SURFACE =        2117455.05           LAND SURFACE =        -890234.22
            SOIL ZONE =        1336159.84              SOIL ZONE =        -120585.95
     UNSATURATED ZONE =       -1809735.65       UNSATURATED ZONE =          -6472.21
       SATURATED ZONE =       -1285483.24         SATURATED ZONE =         -11638.34

 OVERALL BUDGET ERROR =        6169436.85           BUDGET ERROR =         863952.37

  ***WARNING, CUMULATIVE VOLUME OFF > 5%
  ***CAUTION, FLUX RATES OFF > 10%

  PERCENT DISCREPANCY =             47.32    PERCENT DISCREPANCY =            144.73



1
 SUMMARY VOLUMETRIC BUDGET FOR GSFLOW 
 DATE: 04 21 1981              CUMULATIVE TIME STEP:     203
 MODFLOW STRESS PERIOD      2     CURRENT TIME STEP:     203     ITERATIONS:       6

 -----------------------------------------------------------------------------------

   CUMULATIVE VOLUMES               L**3   RATES FOR THIS TIME STEP           L**3/T
   ------------------                      ------------------------

                                     IN                                         IN
                                     --                                         --
        PRECIPITATION =        1.6310D+07          PRECIPITATION =                  
           STREAMFLOW =                               STREAMFLOW =                  
     GW BOUNDARY FLOW =                         GW BOUNDARY FLOW =                  


                                    OUT                                        OUT
                                    ---                                        ---
   EVAPOTRANSPIRATION =        6838225.20     EVAPOTRANSPIRATION =          85255.80
           STREAMFLOW =        3350361.88             STREAMFLOW =           7415.39
     GW BOUNDARY FLOW =         147210.99       GW BOUNDARY FLOW =            723.07

   INFLOWS - OUTFLOWS =        5974444.57     INFLOWS - OUTFLOWS =         -93394.26
             --------                                   --------

 TOTAL STORAGE CHANGE =       -1156711.67         STORAGE CHANGE =        -152086.67
       --------------                             --------------
         LAND SURFACE =        1062230.58           LAND SURFACE =         -68229.83
            SOIL ZONE =        1001065.68              SOIL ZONE =         -66048.71
     UNSATURATED ZONE =       -1852352.67       UNSATURATED ZONE =          -5842.36
       SATURATED ZONE =       -1367655.26         SATURATED ZONE =         -11965.77

 OVERALL BUDGET ERROR =        7131156.24           BUDGET ERROR =          58692.42

  ***WARNING, CUMULATIVE VOLUME OFF > 5%
  ***CAUTION, FLUX RATES OFF > 10%

  PERCENT DISCREPANCY =             51.30    PERCENT DISCREPANCY =             47.82



1
 SUMMARY VOLUMETRIC BUDGET FOR GSFLOW 
 DATE: 04 28 1981              CUMULATIVE TIME STEP:     210
 MODFLOW STRESS PERIOD      2     CURRENT TIME STEP:     210     ITERATIONS:       5

 -----------------------------------------------------------------------------------

   CUMULATIVE VOLUMES               L**3   RATES FOR THIS TIME STEP           L**3/T
   ------------------                      ------------------------

                                     IN                                         IN
                                     --                                         --
        PRECIPITATION =        1.6515D+07          PRECIPITATION =                  
           STREAMFLOW =                               STREAMFLOW =                  
     GW BOUNDARY FLOW =                         GW BOUNDARY FLOW =                  


                                    OUT                                        OUT
                                    ---                                        ---
   EVAPOTRANSPIRATION =        7452543.20     EVAPOTRANSPIRATION =          97216.62
           STREAMFLOW =        3401256.82             STREAMFLOW =           6788.72
     GW BOUNDARY FLOW =         152270.73       GW BOUNDARY FLOW =            722.68

   INFLOWS - OUTFLOWS =        5509362.15     INFLOWS - OUTFLOWS =        -104728.02
             --------                                   --------

 TOTAL STORAGE CHANGE =       -2047269.78         STORAGE CHANGE =        -154376.72
       --------------                             --------------
         LAND SURFACE =         577027.47           LAND SURFACE =         -59508.46
            SOIL ZONE =         720873.31              SOIL ZONE =         -76748.39
     UNSATURATED ZONE =       -1893290.93       UNSATURATED ZONE =          -5891.50
       SATURATED ZONE =       -1451879.62         SATURATED ZONE =         -12228.36

 OVERALL BUDGET ERROR =        7556631.92           BUDGET ERROR =          49648.70

  ***WARNING, CUMULATIVE VOLUME OFF > 5%
  ***CAUTION, FLUX RATES OFF > 10%

  PERCENT DISCREPANCY =             51.11    PERCENT DISCREPANCY =             38.32



1
 SUMMARY VOLUMETRIC BUDGET FOR GSFLOW 
 DATE: 05 05 1981              CUMULATIVE TIME STEP:     217
 MODFLOW STRESS PERIOD      2     CURRENT TIME STEP:     217     ITERATIONS:      10

 -----------------------------------------------------------------------------------

   CUMULATIVE VOLUMES               L**3   RATES FOR THIS TIME STEP           L**3/T
   ------------------                      ------------------------

                                     IN                                         IN
                                     --                                         --
        PRECIPITATION =        1.6515D+07          PRECIPITATION =                  
           STREAMFLOW =                               STREAMFLOW =                  
     GW BOUNDARY FLOW =                         GW BOUNDARY FLOW =                  


                                    OUT                                        OUT
                                    ---                                        ---
   EVAPOTRANSPIRATION =        7788427.11     EVAPOTRANSPIRATION =          16808.05
           STREAMFLOW =        3443112.09             STREAMFLOW =           5652.46
     GW BOUNDARY FLOW =         157327.21       GW BOUNDARY FLOW =            722.15

   INFLOWS - OUTFLOWS =        5126566.48     INFLOWS - OUTFLOWS =         -23182.66
             --------                                   --------

 TOTAL STORAGE CHANGE =       -2700945.50         STORAGE CHANGE =         -27185.87
       --------------                             --------------
         LAND SURFACE =         270156.21           LAND SURFACE =          -4417.52
            SOIL ZONE =         508574.08              SOIL ZONE =          -2906.52
     UNSATURATED ZONE =       -1940843.81       UNSATURATED ZONE =          -7379.00
       SATURATED ZONE =       -1538831.98         SATURATED ZONE =         -12482.83

 OVERALL BUDGET ERROR =        7827511.98           BUDGET ERROR =           4003.21

  ***WARNING, CUMULATIVE VOLUME OFF > 5%
  ***CAUTION, FLUX RATES OFF > 10%

  PERCENT DISCREPANCY =             51.15    PERCENT DISCREPANCY =             15.90



1
 SUMMARY VOLUMETRIC BUDGET FOR GSFLOW 
 DATE: 05 12 1981              CUMULATIVE TIME STEP:     224
 MODFLOW STRESS PERIOD      2     CURRENT TIME STEP:     224     ITERATIONS:       5

 -----------------------------------------------------------------------------------

   CUMULATIVE VOLUMES               L**3   RATES FOR THIS TIME STEP           L**3/T
   ------------------                      ------------------------

                                     IN                                         IN
                                     --                                         --
        PRECIPITATION =        1.6515D+07          PRECIPITATION =                  
           STREAMFLOW =                               STREAMFLOW =                  
     GW BOUNDARY FLOW =                         GW BOUNDARY FLOW =                  


                                    OUT                                        OUT
                                    ---                                        ---
   EVAPOTRANSPIRATION =        7980674.51     EVAPOTRANSPIRATION =          36179.35
           STREAMFLOW =        3482047.37             STREAMFLOW =           5504.07
     GW BOUNDARY FLOW =         162380.93       GW BOUNDARY FLOW =            721.84

   INFLOWS - OUTFLOWS =        4890330.08     INFLOWS - OUTFLOWS =         -42405.26
             --------                                   --------

 TOTAL STORAGE CHANGE =       -3048859.23         STORAGE CHANGE =         -61490.74
       --------------                             --------------
         LAND SURFACE =         141880.29           LAND SURFACE =         -22738.24
            SOIL ZONE =         426739.57              SOIL ZONE =         -19318.09
     UNSATURATED ZONE =       -1990307.94       UNSATURATED ZONE =          -6722.16
       SATURATED ZONE =       -1627171.16         SATURATED ZONE =         -12712.25

 OVERALL BUDGET ERROR =        7939189.32           BUDGET ERROR =          19085.48

  ***WARNING, CUMULATIVE VOLUME OFF > 5%
  ***CAUTION, FLUX RATES OFF > 10%

  PERCENT DISCREPANCY =             50.91    PERCENT DISCREPANCY =             36.74



1
 SUMMARY VOLUMETRIC BUDGET FOR GSFLOW 
 DATE: 05 19 1981              CUMULATIVE TIME STEP:     231
 MODFLOW STRESS PERIOD      2     CURRENT TIME STEP:     231     ITERATIONS:       6

 -----------------------------------------------------------------------------------

   CUMULATIVE VOLUMES               L**3   RATES FOR THIS TIME STEP           L**3/T
   ------------------                      ------------------------

                                     IN                                         IN
                                     --                                         --
        PRECIPITATION =        1.7837D+07          PRECIPITATION =         169045.43
           STREAMFLOW =                               STREAMFLOW =                  
     GW BOUNDARY FLOW =                         GW BOUNDARY FLOW =                  


                                    OUT                                        OUT
                                    ---                                        ---
   EVAPOTRANSPIRATION =        8169369.50     EVAPOTRANSPIRATION =          31098.89
           STREAMFLOW =        3556819.55             STREAMFLOW =          15421.56
     GW BOUNDARY FLOW =         167436.44       GW BOUNDARY FLOW =            723.19

   INFLOWS - OUTFLOWS =        5943435.26     INFLOWS - OUTFLOWS =         121801.79
             --------                                   --------

 TOTAL STORAGE CHANGE =       -1933684.07         STORAGE CHANGE =         157248.63
       --------------                             --------------
         LAND SURFACE =         204604.05           LAND SURFACE =          37993.32
            SOIL ZONE =        1603128.52              SOIL ZONE =         133838.13
     UNSATURATED ZONE =       -2029685.34       UNSATURATED ZONE =          -2777.45
       SATURATED ZONE =       -1711731.31         SATURATED ZONE =         -11805.38

 OVERALL BUDGET ERROR =        7877119.33           BUDGET ERROR =         -35446.84

  ***WARNING, CUMULATIVE VOLUME OFF > 5%
  ***CAUTION, FLUX RATES OFF > 10%

  PERCENT DISCREPANCY =             49.75    PERCENT DISCREPANCY =            -18.98



1
 SUMMARY VOLUMETRIC BUDGET FOR GSFLOW 
 DATE: 05 26 1981              CUMULATIVE TIME STEP:     238
 MODFLOW STRESS PERIOD      2     CURRENT TIME STEP:     238     ITERATIONS:       5

 -----------------------------------------------------------------------------------

   CUMULATIVE VOLUMES               L**3   RATES FOR THIS TIME STEP           L**3/T
   ------------------                      ------------------------

                                     IN                                         IN
                                     --                                         --
        PRECIPITATION =        1.8252D+07          PRECIPITATION =         284303.67
           STREAMFLOW =                               STREAMFLOW =                  
     GW BOUNDARY FLOW =                         GW BOUNDARY FLOW =                  


                                    OUT                                        OUT
                                    ---                                        ---
   EVAPOTRANSPIRATION =        8953494.61     EVAPOTRANSPIRATION =         126247.52
           STREAMFLOW =        3628341.51             STREAMFLOW =          13618.82
     GW BOUNDARY FLOW =         172494.30       GW BOUNDARY FLOW =            722.50

   INFLOWS - OUTFLOWS =        5497660.02     INFLOWS - OUTFLOWS =         143714.83
             --------                                   --------

 TOTAL STORAGE CHANGE =       -2488924.67         STORAGE CHANGE =         136985.05
       --------------                             --------------
         LAND SURFACE =          83716.87           LAND SURFACE =          -7992.20
            SOIL ZONE =        1290073.40              SOIL ZONE =         161499.85
     UNSATURATED ZONE =       -2063325.32       UNSATURATED ZONE =          -4537.07
       SATURATED ZONE =       -1799389.62         SATURATED ZONE =         -11985.53

 OVERALL BUDGET ERROR =        7986584.69           BUDGET ERROR =           6729.79

  ***WARNING, CUMULATIVE VOLUME OFF > 5%

  PERCENT DISCREPANCY =             47.69    PERCENT DISCREPANCY =              2.40



1
 SUMMARY VOLUMETRIC BUDGET FOR GSFLOW 
 DATE: 06 02 1981              CUMULATIVE TIME STEP:     245
 MODFLOW STRESS PERIOD      2     CURRENT TIME STEP:     245     ITERATIONS:       5

 -----------------------------------------------------------------------------------

   CUMULATIVE VOLUMES               L**3   RATES FOR THIS TIME STEP           L**3/T
   ------------------                      ------------------------

                                     IN                                         IN
                                     --                                         --
        PRECIPITATION =        1.8318D+07          PRECIPITATION =          50869.96
           STREAMFLOW =                               STREAMFLOW =                  
     GW BOUNDARY FLOW =                         GW BOUNDARY FLOW =                  


                                    OUT                                        OUT
                                    ---                                        ---
   EVAPOTRANSPIRATION =        9618918.88     EVAPOTRANSPIRATION =          50313.46
           STREAMFLOW =        3680031.76             STREAMFLOW =           6390.24
     GW BOUNDARY FLOW =         177547.94       GW BOUNDARY FLOW =            721.58

   INFLOWS - OUTFLOWS =        4841729.59     INFLOWS - OUTFLOWS =          -6555.32
             --------                                   --------

 TOTAL STORAGE CHANGE =       -3183723.10         STORAGE CHANGE =          24979.38
       --------------                             --------------
         LAND SURFACE =          38480.87           LAND SURFACE =          30975.50
            SOIL ZONE =         773241.53              SOIL ZONE =          13186.71
     UNSATURATED ZONE =       -2104728.53       UNSATURATED ZONE =          -6031.19
       SATURATED ZONE =       -1890716.96         SATURATED ZONE =         -13151.65

 OVERALL BUDGET ERROR =        8025452.68           BUDGET ERROR =         -31534.70

  ***WARNING, CUMULATIVE VOLUME OFF > 5%
  ***CAUTION, FLUX RATES OFF > 10%

  PERCENT DISCREPANCY =             45.89    PERCENT DISCREPANCY =            -47.32



1
 SUMMARY VOLUMETRIC BUDGET FOR GSFLOW 
 DATE: 06 09 1981              CUMULATIVE TIME STEP:     252
 MODFLOW STRESS PERIOD      2     CURRENT TIME STEP:     252     ITERATIONS:       5

 -----------------------------------------------------------------------------------

   CUMULATIVE VOLUMES               L**3   RATES FOR THIS TIME STEP           L**3/T
   ------------------                      ------------------------

                                     IN                                         IN
                                     --                                         --
        PRECIPITATION =        1.8318D+07          PRECIPITATION =                  
           STREAMFLOW =                               STREAMFLOW =                  
     GW BOUNDARY FLOW =                         GW BOUNDARY FLOW =                  


                                    OUT                                        OUT
                                    ---                                        ---
   EVAPOTRANSPIRATION =        9998551.34     EVAPOTRANSPIRATION =          41487.38
           STREAMFLOW =        3718167.36             STREAMFLOW =           5201.86
     GW BOUNDARY FLOW =         182596.97       GW BOUNDARY FLOW =            721.13

   INFLOWS - OUTFLOWS =        4418912.50     INFLOWS - OUTFLOWS =         -47410.37
             --------                                   --------

 TOTAL STORAGE CHANGE =       -3644499.22         STORAGE CHANGE =         -47390.47
       --------------                             --------------
         LAND SURFACE =                             LAND SURFACE =                  
            SOIL ZONE =         485607.10              SOIL ZONE =         -28226.96
     UNSATURATED ZONE =       -2145641.69       UNSATURATED ZONE =          -5697.19
       SATURATED ZONE =       -1984464.63         SATURATED ZONE =         -13466.32

 OVERALL BUDGET ERROR =        8063411.72           BUDGET ERROR =            -19.90

  ***WARNING, CUMULATIVE VOLUME OFF > 5%

  PERCENT DISCREPANCY =             44.97    PERCENT DISCREPANCY =             -0.04



1
 SUMMARY VOLUMETRIC BUDGET FOR GSFLOW 
 DATE: 06 16 1981              CUMULATIVE TIME STEP:     259
 MODFLOW STRESS PERIOD      2     CURRENT TIME STEP:     259     ITERATIONS:       5

 -----------------------------------------------------------------------------------

   CUMULATIVE VOLUMES               L**3   RATES FOR THIS TIME STEP           L**3/T
   ------------------                      ------------------------

                                     IN                                         IN
                                     --                                         --
        PRECIPITATION =        1.8318D+07          PRECIPITATION =                  
           STREAMFLOW =                               STREAMFLOW =                  
     GW BOUNDARY FLOW =                         GW BOUNDARY FLOW =                  


                                    OUT                                        OUT
                                    ---                                        ---
   EVAPOTRANSPIRATION =        1.0152D+07     EVAPOTRANSPIRATION =          36866.50
           STREAMFLOW =        3754042.50             STREAMFLOW =           5113.32
     GW BOUNDARY FLOW =         187644.08       GW BOUNDARY FLOW =            720.94

   INFLOWS - OUTFLOWS =        4224836.71     INFLOWS - OUTFLOWS =         -42700.76
             --------                                   --------

 TOTAL STORAGE CHANGE =       -3838437.03         STORAGE CHANGE =         -42681.50
       --------------                             --------------
         LAND SURFACE =                             LAND SURFACE =                  
            SOIL ZONE =         425131.71              SOIL ZONE =         -23649.88
     UNSATURATED ZONE =       -2184147.54       UNSATURATED ZONE =          -5358.73
       SATURATED ZONE =       -2079421.21         SATURATED ZONE =         -13672.89

 OVERALL BUDGET ERROR =        8063273.74           BUDGET ERROR =            -19.26

  ***WARNING, CUMULATIVE VOLUME OFF > 5%

  PERCENT DISCREPANCY =             44.49    PERCENT DISCREPANCY =             -0.05



1
 SUMMARY VOLUMETRIC BUDGET FOR GSFLOW 
 DATE: 06 23 1981              CUMULATIVE TIME STEP:     266
 MODFLOW STRESS PERIOD      2     CURRENT TIME STEP:     266     ITERATIONS:       5

[...]
             --------                                   --------

 TOTAL STORAGE CHANGE =       -1.7385D+07         STORAGE CHANGE =         -35278.10
       --------------                             --------------
         LAND SURFACE =                             LAND SURFACE =                  
            SOIL ZONE =         212498.68              SOIL ZONE =         -20538.99
     UNSATURATED ZONE =        8194575.24       UNSATURATED ZONE =         -18447.71
       SATURATED ZONE =       -2.5792D+07         SATURATED ZONE =           3708.59

 OVERALL BUDGET ERROR =        1.4211D+08           BUDGET ERROR =            -10.76

  ***WARNING, CUMULATIVE VOLUME OFF > 5%

  PERCENT DISCREPANCY =             34.54    PERCENT DISCREPANCY =             -0.03



1
 SUMMARY VOLUMETRIC BUDGET FOR GSFLOW 
 DATE: 07 30 1996              CUMULATIVE TIME STEP:    5782
 MODFLOW STRESS PERIOD      2     CURRENT TIME STEP:    5782     ITERATIONS:       9

 -----------------------------------------------------------------------------------

   CUMULATIVE VOLUMES               L**3   RATES FOR THIS TIME STEP           L**3/T
   ------------------                      ------------------------

                                     IN                                         IN
                                     --                                         --
        PRECIPITATION =        4.6511D+08          PRECIPITATION =                  
           STREAMFLOW =                               STREAMFLOW =                  
     GW BOUNDARY FLOW =                         GW BOUNDARY FLOW =                  


                                    OUT                                        OUT
                                    ---                                        ---
   EVAPOTRANSPIRATION =        2.0721D+08     EVAPOTRANSPIRATION =          21542.06
           STREAMFLOW =        1.2917D+08             STREAMFLOW =           4641.07
     GW BOUNDARY FLOW =        4154240.57       GW BOUNDARY FLOW =            716.81

   INFLOWS - OUTFLOWS =        1.2457D+08     INFLOWS - OUTFLOWS =         -26899.94
             --------                                   --------

 TOTAL STORAGE CHANGE =       -1.7540D+07         STORAGE CHANGE =         -26889.92
       --------------                             --------------
         LAND SURFACE =                             LAND SURFACE =                  
            SOIL ZONE =         159730.20              SOIL ZONE =         -12325.54
     UNSATURATED ZONE =        8067056.77       UNSATURATED ZONE =         -17981.49
       SATURATED ZONE =       -2.5766D+07         SATURATED ZONE =           3417.11

 OVERALL BUDGET ERROR =        1.4211D+08           BUDGET ERROR =            -10.02

  ***WARNING, CUMULATIVE VOLUME OFF > 5%

  PERCENT DISCREPANCY =             34.53    PERCENT DISCREPANCY =             -0.04



1
 SUMMARY VOLUMETRIC BUDGET FOR GSFLOW 
 DATE: 08 06 1996              CUMULATIVE TIME STEP:    5789
 MODFLOW STRESS PERIOD      2     CURRENT TIME STEP:    5789     ITERATIONS:      10

 -----------------------------------------------------------------------------------

   CUMULATIVE VOLUMES               L**3   RATES FOR THIS TIME STEP           L**3/T
   ------------------                      ------------------------

                                     IN                                         IN
                                     --                                         --
        PRECIPITATION =        4.6511D+08          PRECIPITATION =                  
           STREAMFLOW =                               STREAMFLOW =                  
     GW BOUNDARY FLOW =                         GW BOUNDARY FLOW =                  


                                    OUT                                        OUT
                                    ---                                        ---
   EVAPOTRANSPIRATION =        2.0732D+08     EVAPOTRANSPIRATION =          13186.86
           STREAMFLOW =        1.2920D+08             STREAMFLOW =           4432.44
     GW BOUNDARY FLOW =        4159257.23       GW BOUNDARY FLOW =            716.57

   INFLOWS - OUTFLOWS =        1.2443D+08     INFLOWS - OUTFLOWS =         -18335.86
             --------                                   --------

 TOTAL STORAGE CHANGE =       -1.7685D+07         STORAGE CHANGE =         -18325.50
       --------------                             --------------
         LAND SURFACE =                             LAND SURFACE =                  
            SOIL ZONE =         115974.17              SOIL ZONE =          -3907.34
     UNSATURATED ZONE =        7941923.62       UNSATURATED ZONE =         -17725.42
       SATURATED ZONE =       -2.5743D+07         SATURATED ZONE =           3307.25

 OVERALL BUDGET ERROR =        1.4211D+08           BUDGET ERROR =            -10.36

  ***WARNING, CUMULATIVE VOLUME OFF > 5%

  PERCENT DISCREPANCY =             34.51    PERCENT DISCREPANCY =             -0.06



1
 SUMMARY VOLUMETRIC BUDGET FOR GSFLOW 
 DATE: 08 13 1996              CUMULATIVE TIME STEP:    5796
 MODFLOW STRESS PERIOD      2     CURRENT TIME STEP:    5796     ITERATIONS:       9

 -----------------------------------------------------------------------------------

   CUMULATIVE VOLUMES               L**3   RATES FOR THIS TIME STEP           L**3/T
   ------------------                      ------------------------

                                     IN                                         IN
                                     --                                         --
        PRECIPITATION =        4.6531D+08          PRECIPITATION =          54454.08
           STREAMFLOW =                               STREAMFLOW =                  
     GW BOUNDARY FLOW =                         GW BOUNDARY FLOW =                  


                                    OUT                                        OUT
                                    ---                                        ---
   EVAPOTRANSPIRATION =        2.0746D+08     EVAPOTRANSPIRATION =          28465.91
           STREAMFLOW =        1.2924D+08             STREAMFLOW =           5602.50
     GW BOUNDARY FLOW =        4164272.42       GW BOUNDARY FLOW =            716.50

   INFLOWS - OUTFLOWS =        1.2445D+08     INFLOWS - OUTFLOWS =          19669.17
             --------                                   --------

 TOTAL STORAGE CHANGE =       -1.7624D+07         STORAGE CHANGE =          19678.51
       --------------                             --------------
         LAND SURFACE =          34505.06           LAND SURFACE =                  
            SOIL ZONE =         241329.37              SOIL ZONE =          33774.08
     UNSATURATED ZONE =        7819465.72       UNSATURATED ZONE =         -17353.54
       SATURATED ZONE =       -2.5720D+07         SATURATED ZONE =           3257.98

 OVERALL BUDGET ERROR =        1.4208D+08           BUDGET ERROR =             -9.34

  ***WARNING, CUMULATIVE VOLUME OFF > 5%

  PERCENT DISCREPANCY =             34.49    PERCENT DISCREPANCY =             -0.02



1
 SUMMARY VOLUMETRIC BUDGET FOR GSFLOW 
 DATE: 08 20 1996              CUMULATIVE TIME STEP:    5803
 MODFLOW STRESS PERIOD      2     CURRENT TIME STEP:    5803     ITERATIONS:       9

 -----------------------------------------------------------------------------------

   CUMULATIVE VOLUMES               L**3   RATES FOR THIS TIME STEP           L**3/T
   ------------------                      ------------------------

                                     IN                                         IN
                                     --                                         --
        PRECIPITATION =        4.6531D+08          PRECIPITATION =                  
           STREAMFLOW =                               STREAMFLOW =                  
     GW BOUNDARY FLOW =                         GW BOUNDARY FLOW =                  


                                    OUT                                        OUT
                                    ---                                        ---
   EVAPOTRANSPIRATION =        2.0760D+08     EVAPOTRANSPIRATION =          14679.22
           STREAMFLOW =        1.2927D+08             STREAMFLOW =           4365.41
     GW BOUNDARY FLOW =        4169286.27       GW BOUNDARY FLOW =            716.11

   INFLOWS - OUTFLOWS =        1.2427D+08     INFLOWS - OUTFLOWS =         -19760.74
             --------                                   --------

 TOTAL STORAGE CHANGE =       -1.7841D+07         STORAGE CHANGE =         -19751.35
       --------------                             --------------
         LAND SURFACE =                             LAND SURFACE =                  
            SOIL ZONE =         158389.95              SOIL ZONE =          -5587.64
     UNSATURATED ZONE =        7700322.73       UNSATURATED ZONE =         -16927.38
       SATURATED ZONE =       -2.5700D+07         SATURATED ZONE =           2763.67

 OVERALL BUDGET ERROR =        1.4211D+08           BUDGET ERROR =             -9.38

  ***WARNING, CUMULATIVE VOLUME OFF > 5%

  PERCENT DISCREPANCY =             34.48    PERCENT DISCREPANCY =             -0.05



1
 SUMMARY VOLUMETRIC BUDGET FOR GSFLOW 
 DATE: 08 27 1996              CUMULATIVE TIME STEP:    5810
 MODFLOW STRESS PERIOD      2     CURRENT TIME STEP:    5810     ITERATIONS:       8

 -----------------------------------------------------------------------------------

   CUMULATIVE VOLUMES               L**3   RATES FOR THIS TIME STEP           L**3/T
   ------------------                      ------------------------

                                     IN                                         IN
                                     --                                         --
        PRECIPITATION =        4.6531D+08          PRECIPITATION =                  
           STREAMFLOW =                               STREAMFLOW =                  
     GW BOUNDARY FLOW =                         GW BOUNDARY FLOW =                  


                                    OUT                                        OUT
                                    ---                                        ---
   EVAPOTRANSPIRATION =        2.0772D+08     EVAPOTRANSPIRATION =          12296.23
           STREAMFLOW =        1.2930D+08             STREAMFLOW =           4256.67
     GW BOUNDARY FLOW =        4174297.89       GW BOUNDARY FLOW =            715.81

   INFLOWS - OUTFLOWS =        1.2412D+08     INFLOWS - OUTFLOWS =         -17268.71
             --------                                   --------

 TOTAL STORAGE CHANGE =       -1.7987D+07         STORAGE CHANGE =         -17260.99
       --------------                             --------------
         LAND SURFACE =                             LAND SURFACE =                  
            SOIL ZONE =         111448.43              SOIL ZONE =          -3233.04
     UNSATURATED ZONE =        7582043.84       UNSATURATED ZONE =         -16762.31
       SATURATED ZONE =       -2.5680D+07         SATURATED ZONE =           2734.35

 OVERALL BUDGET ERROR =        1.4211D+08           BUDGET ERROR =             -7.72

  ***WARNING, CUMULATIVE VOLUME OFF > 5%

  PERCENT DISCREPANCY =             34.47    PERCENT DISCREPANCY =             -0.04



1
 SUMMARY VOLUMETRIC BUDGET FOR GSFLOW 
 DATE: 09 03 1996              CUMULATIVE TIME STEP:    5817
 MODFLOW STRESS PERIOD      2     CURRENT TIME STEP:    5817     ITERATIONS:       8

 -----------------------------------------------------------------------------------

   CUMULATIVE VOLUMES               L**3   RATES FOR THIS TIME STEP           L**3/T
   ------------------                      ------------------------

                                     IN                                         IN
                                     --                                         --
        PRECIPITATION =        4.6531D+08          PRECIPITATION =                  
           STREAMFLOW =                               STREAMFLOW =                  
     GW BOUNDARY FLOW =                         GW BOUNDARY FLOW =                  


                                    OUT                                        OUT
                                    ---                                        ---
   EVAPOTRANSPIRATION =        2.0780D+08     EVAPOTRANSPIRATION =           9731.16
           STREAMFLOW =        1.2933D+08             STREAMFLOW =           4203.74
     GW BOUNDARY FLOW =        4179307.46       GW BOUNDARY FLOW =            715.54

   INFLOWS - OUTFLOWS =        1.2401D+08     INFLOWS - OUTFLOWS =         -14650.44
             --------                                   --------

 TOTAL STORAGE CHANGE =       -1.8104D+07         STORAGE CHANGE =         -14642.62
       --------------                             --------------
         LAND SURFACE =                             LAND SURFACE =                  
            SOIL ZONE =          92230.86              SOIL ZONE =           -733.15
     UNSATURATED ZONE =        7466319.45       UNSATURATED ZONE =         -16379.44
       SATURATED ZONE =       -2.5662D+07         SATURATED ZONE =           2469.97

 OVERALL BUDGET ERROR =        1.4211D+08           BUDGET ERROR =             -7.82

  ***WARNING, CUMULATIVE VOLUME OFF > 5%

  PERCENT DISCREPANCY =             34.46    PERCENT DISCREPANCY =             -0.05



1
 SUMMARY VOLUMETRIC BUDGET FOR GSFLOW 
 DATE: 09 10 1996              CUMULATIVE TIME STEP:    5824
 MODFLOW STRESS PERIOD      2     CURRENT TIME STEP:    5824     ITERATIONS:       8

 -----------------------------------------------------------------------------------

   CUMULATIVE VOLUMES               L**3   RATES FOR THIS TIME STEP           L**3/T
   ------------------                      ------------------------

                                     IN                                         IN
                                     --                                         --
        PRECIPITATION =        4.6531D+08          PRECIPITATION =                  
           STREAMFLOW =                               STREAMFLOW =                  
     GW BOUNDARY FLOW =                         GW BOUNDARY FLOW =                  


                                    OUT                                        OUT
                                    ---                                        ---
   EVAPOTRANSPIRATION =        2.0786D+08     EVAPOTRANSPIRATION =           9926.35
           STREAMFLOW =        1.2936D+08             STREAMFLOW =           4154.90
     GW BOUNDARY FLOW =        4184315.34       GW BOUNDARY FLOW =            715.32

   INFLOWS - OUTFLOWS =        1.2391D+08     INFLOWS - OUTFLOWS =         -14796.57
             --------                                   --------

 TOTAL STORAGE CHANGE =       -1.8200D+07         STORAGE CHANGE =         -14788.98
       --------------                             --------------
         LAND SURFACE =                             LAND SURFACE =                  
            SOIL ZONE =          92941.55              SOIL ZONE =           -989.57
     UNSATURATED ZONE =        7353548.14       UNSATURATED ZONE =         -15982.80
       SATURATED ZONE =       -2.5647D+07         SATURATED ZONE =           2183.40

 OVERALL BUDGET ERROR =        1.4211D+08           BUDGET ERROR =             -7.59

  ***WARNING, CUMULATIVE VOLUME OFF > 5%

  PERCENT DISCREPANCY =             34.45    PERCENT DISCREPANCY =             -0.05



1
 SUMMARY VOLUMETRIC BUDGET FOR GSFLOW 
 DATE: 09 17 1996              CUMULATIVE TIME STEP:    5831
 MODFLOW STRESS PERIOD      2     CURRENT TIME STEP:    5831     ITERATIONS:       8

 -----------------------------------------------------------------------------------

   CUMULATIVE VOLUMES               L**3   RATES FOR THIS TIME STEP           L**3/T
   ------------------                      ------------------------

                                     IN                                         IN
                                     --                                         --
        PRECIPITATION =        4.6637D+08          PRECIPITATION =                  
           STREAMFLOW =                               STREAMFLOW =                  
     GW BOUNDARY FLOW =                         GW BOUNDARY FLOW =                  


                                    OUT                                        OUT
                                    ---                                        ---
   EVAPOTRANSPIRATION =        2.0799D+08     EVAPOTRANSPIRATION =          52774.70
           STREAMFLOW =        1.2941D+08             STREAMFLOW =           8094.86
     GW BOUNDARY FLOW =        4189324.59       GW BOUNDARY FLOW =            716.19

   INFLOWS - OUTFLOWS =        1.2477D+08     INFLOWS - OUTFLOWS =         -61585.76
             --------                                   --------

 TOTAL STORAGE CHANGE =       -1.7339D+07         STORAGE CHANGE =         -96083.72
       --------------                             --------------
         LAND SURFACE =                             LAND SURFACE =         -34505.06
            SOIL ZONE =        1047038.20              SOIL ZONE =         -47945.25
     UNSATURATED ZONE =        7242274.11       UNSATURATED ZONE =         -15949.80
       SATURATED ZONE =       -2.5628D+07         SATURATED ZONE =           2316.39

 OVERALL BUDGET ERROR =        1.4211D+08           BUDGET ERROR =          34497.96

  ***WARNING, CUMULATIVE VOLUME OFF > 5%
  ***CAUTION, FLUX RATES OFF > 10%

  PERCENT DISCREPANCY =             34.44    PERCENT DISCREPANCY =             43.76



1
 SUMMARY VOLUMETRIC BUDGET FOR GSFLOW 
 DATE: 09 24 1996              CUMULATIVE TIME STEP:    5838
 MODFLOW STRESS PERIOD      2     CURRENT TIME STEP:    5838     ITERATIONS:       8

 -----------------------------------------------------------------------------------

   CUMULATIVE VOLUMES               L**3   RATES FOR THIS TIME STEP           L**3/T
   ------------------                      ------------------------

                                     IN                                         IN
                                     --                                         --
        PRECIPITATION =        4.6637D+08          PRECIPITATION =                  
           STREAMFLOW =                               STREAMFLOW =                  
     GW BOUNDARY FLOW =                         GW BOUNDARY FLOW =                  


                                    OUT                                        OUT
                                    ---                                        ---
   EVAPOTRANSPIRATION =        2.0846D+08     EVAPOTRANSPIRATION =          52165.23
           STREAMFLOW =        1.2945D+08             STREAMFLOW =           4578.60
     GW BOUNDARY FLOW =        4194332.96       GW BOUNDARY FLOW =            715.10

   INFLOWS - OUTFLOWS =        1.2427D+08     INFLOWS - OUTFLOWS =         -57458.93
             --------                                   --------

 TOTAL STORAGE CHANGE =       -1.7846D+07         STORAGE CHANGE =         -57451.89
       --------------                             --------------
         LAND SURFACE =                             LAND SURFACE =                  
            SOIL ZONE =         636230.68              SOIL ZONE =         -43802.52
     UNSATURATED ZONE =        7132668.10       UNSATURATED ZONE =         -15443.22
       SATURATED ZONE =       -2.5614D+07         SATURATED ZONE =           1793.85

 OVERALL BUDGET ERROR =        1.4211D+08           BUDGET ERROR =             -7.04

  ***WARNING, CUMULATIVE VOLUME OFF > 5%

  PERCENT DISCREPANCY =             34.40    PERCENT DISCREPANCY =             -0.01



