1
 SUMMARY VOLUMETRIC BUDGET FOR GSFLOW 
 DATE: 10 07 1980              CUMULATIVE TIME STEP:       7
 MODFLOW STRESS PERIOD      2     CURRENT TIME STEP:       7     ITERATIONS:       4

 -----------------------------------------------------------------------------------

   CUMULATIVE VOLUMES               L**3   RATES FOR THIS TIME STEP           L**3/T
   ------------------                      ------------------------

                                     IN                                         IN
                                     --                                         --
        PRECIPITATION =                            PRECIPITATION =                  
           STREAMFLOW =                               STREAMFLOW =                  
     GW BOUNDARY FLOW =                         GW BOUNDARY FLOW =                  


                                    OUT                                        OUT
                                    ---                                        ---
   EVAPOTRANSPIRATION =          63598.86     EVAPOTRANSPIRATION =           9287.66
           STREAMFLOW =          43081.79             STREAMFLOW =           6083.36
     GW BOUNDARY FLOW =           5067.91       GW BOUNDARY FLOW =            723.89

   INFLOWS - OUTFLOWS =        -111748.55     INFLOWS - OUTFLOWS =         -16094.91
             --------                                   --------

 TOTAL STORAGE CHANGE =        -111514.42         STORAGE CHANGE =         -16060.66
       --------------                             --------------
         LAND SURFACE =                             LAND SURFACE =                  
            SOIL ZONE =          46846.34              SOIL ZONE =           6398.93
     UNSATURATED ZONE =        -144965.30       UNSATURATED ZONE =         -20382.35
       SATURATED ZONE =         -13395.46         SATURATED ZONE =          -2077.23

 OVERALL BUDGET ERROR =           -234.13           BUDGET ERROR =            -34.25


  PERCENT DISCREPANCY =             -0.21    PERCENT DISCREPANCY =             -0.21



1
 SUMMARY VOLUMETRIC BUDGET FOR GSFLOW 
 DATE: 10 14 1980              CUMULATIVE TIME STEP:      14
 MODFLOW STRESS PERIOD      2     CURRENT TIME STEP:      14     ITERATIONS:       4

 -----------------------------------------------------------------------------------

   CUMULATIVE VOLUMES               L**3   RATES FOR THIS TIME STEP           L**3/T
   ------------------                      ------------------------

                                     IN                                         IN
                                     --                                         --
        PRECIPITATION =         650779.83          PRECIPITATION =         164754.40
           STREAMFLOW =                               STREAMFLOW =                  
     GW BOUNDARY FLOW =                         GW BOUNDARY FLOW =                  


                                    OUT                                        OUT
                                    ---                                        ---
   EVAPOTRANSPIRATION =         159278.27     EVAPOTRANSPIRATION =          10671.04
           STREAMFLOW =          94488.71             STREAMFLOW =           7705.06
     GW BOUNDARY FLOW =          10135.83       GW BOUNDARY FLOW =            724.16

   INFLOWS - OUTFLOWS =         386877.03     INFLOWS - OUTFLOWS =         145654.13
             --------                                   --------

 TOTAL STORAGE CHANGE =         387345.23         STORAGE CHANGE =         145689.34
       --------------                             --------------
         LAND SURFACE =         183750.31           LAND SURFACE =         130549.56
            SOIL ZONE =         517003.78              SOIL ZONE =          37242.00
     UNSATURATED ZONE =        -284675.80       UNSATURATED ZONE =         -19601.71
       SATURATED ZONE =         -28733.06         SATURATED ZONE =          -2500.50

 OVERALL BUDGET ERROR =           -468.20           BUDGET ERROR =            -35.21


  PERCENT DISCREPANCY =             -0.07    PERCENT DISCREPANCY =             -0.02



1
 SUMMARY VOLUMETRIC BUDGET FOR GSFLOW 
 DATE: 10 21 1980              CUMULATIVE TIME STEP:      21
 MODFLOW STRESS PERIOD      2     CURRENT TIME STEP:      21     ITERATIONS:       5

 -----------------------------------------------------------------------------------

   CUMULATIVE VOLUMES               L**3   RATES FOR THIS TIME STEP           L**3/T
   ------------------                      ------------------------

                                     IN                                         IN
                                     --                                         --
        PRECIPITATION =         733157.03          PRECIPITATION =                  
           STREAMFLOW =                               STREAMFLOW =                  
     GW BOUNDARY FLOW =                         GW BOUNDARY FLOW =                  


                                    OUT                                        OUT
                                    ---                                        ---
   EVAPOTRANSPIRATION =         376774.03     EVAPOTRANSPIRATION =          31074.05
           STREAMFLOW =         145892.09             STREAMFLOW =           6945.20
     GW BOUNDARY FLOW =          15204.01       GW BOUNDARY FLOW =            723.92

   INFLOWS - OUTFLOWS =         195286.91     INFLOWS - OUTFLOWS =         -38743.17
             --------                                   --------

 TOTAL STORAGE CHANGE =         195975.30         STORAGE CHANGE =         -38712.93
       --------------                             --------------
         LAND SURFACE =                             LAND SURFACE =                  
            SOIL ZONE =         663138.57              SOIL ZONE =         -16749.77
     UNSATURATED ZONE =        -418563.88       UNSATURATED ZONE =         -18774.38
       SATURATED ZONE =         -48599.38         SATURATED ZONE =          -3188.79

 OVERALL BUDGET ERROR =           -688.40           BUDGET ERROR =            -30.24


  PERCENT DISCREPANCY =             -0.09    PERCENT DISCREPANCY =             -0.08



1
 SUMMARY VOLUMETRIC BUDGET FOR GSFLOW 
 DATE: 10 28 1980              CUMULATIVE TIME STEP:      28
 MODFLOW STRESS PERIOD      2     CURRENT TIME STEP:      28     ITERATIONS:       5

 -----------------------------------------------------------------------------------

   CUMULATIVE VOLUMES               L**3   RATES FOR THIS TIME STEP           L**3/T
   ------------------                      ------------------------

                                     IN                                         IN
                                     --                                         --
        PRECIPITATION =        1070903.53          PRECIPITATION =                  
           STREAMFLOW =                               STREAMFLOW =                  
     GW BOUNDARY FLOW =                         GW BOUNDARY FLOW =                  


                                    OUT                                        OUT
                                    ---                                        ---
   EVAPOTRANSPIRATION =         552544.97     EVAPOTRANSPIRATION =          24800.27
           STREAMFLOW =         200718.14             STREAMFLOW =           8034.09
     GW BOUNDARY FLOW =          20271.63       GW BOUNDARY FLOW =            724.02

   INFLOWS - OUTFLOWS =         297368.78     INFLOWS - OUTFLOWS =         -33558.38
             --------                                   --------

 TOTAL STORAGE CHANGE =         298264.34         STORAGE CHANGE =         -33528.55
       --------------                             --------------
         LAND SURFACE =          20571.53           LAND SURFACE =         -29890.85
            SOIL ZONE =         896724.54              SOIL ZONE =          17948.11
     UNSATURATED ZONE =        -546609.06       UNSATURATED ZONE =         -17920.67
       SATURATED ZONE =         -72422.66         SATURATED ZONE =          -3665.14

 OVERALL BUDGET ERROR =           -895.56           BUDGET ERROR =            -29.83


  PERCENT DISCREPANCY =             -0.08    PERCENT DISCREPANCY =             -0.09



1
 SUMMARY VOLUMETRIC BUDGET FOR GSFLOW 
 DATE: 11 04 1980              CUMULATIVE TIME STEP:      35
 MODFLOW STRESS PERIOD      2     CURRENT TIME STEP:      35     ITERATIONS:       6

 -----------------------------------------------------------------------------------

   CUMULATIVE VOLUMES               L**3   RATES FOR THIS TIME STEP           L**3/T
   ------------------                      ------------------------

                                     IN                                         IN
                                     --                                         --
        PRECIPITATION =        1070903.53          PRECIPITATION =                  
           STREAMFLOW =                               STREAMFLOW =                  
     GW BOUNDARY FLOW =                         GW BOUNDARY FLOW =                  


                                    OUT                                        OUT
                                    ---                                        ---
   EVAPOTRANSPIRATION =         842283.37     EVAPOTRANSPIRATION =          39649.67
           STREAMFLOW =         253836.51             STREAMFLOW =           7129.17
     GW BOUNDARY FLOW =          25339.00       GW BOUNDARY FLOW =            723.82

   INFLOWS - OUTFLOWS =         -50555.35     INFLOWS - OUTFLOWS =         -47502.67
             --------                                   --------

 TOTAL STORAGE CHANGE =         -49459.63         STORAGE CHANGE =         -47476.26
       --------------                             --------------
         LAND SURFACE =                             LAND SURFACE =                  
            SOIL ZONE =         720824.94              SOIL ZONE =         -25860.36
     UNSATURATED ZONE =        -669492.53       UNSATURATED ZONE =         -17301.54
       SATURATED ZONE =        -100792.04         SATURATED ZONE =          -4314.37

 OVERALL BUDGET ERROR =          -1095.72           BUDGET ERROR =            -26.41


  PERCENT DISCREPANCY =             -0.10    PERCENT DISCREPANCY =             -0.06



1
 SUMMARY VOLUMETRIC BUDGET FOR GSFLOW 
 DATE: 11 11 1980              CUMULATIVE TIME STEP:      42
 MODFLOW STRESS PERIOD      2     CURRENT TIME STEP:      42     ITERATIONS:       5

 -----------------------------------------------------------------------------------

   CUMULATIVE VOLUMES               L**3   RATES FOR THIS TIME STEP           L**3/T
   ------------------                      ------------------------

                                     IN                                         IN
                                     --                                         --
        PRECIPITATION =        1573762.54          PRECIPITATION =         255182.19
           STREAMFLOW =                               STREAMFLOW =                  
     GW BOUNDARY FLOW =                         GW BOUNDARY FLOW =                  


                                    OUT                                        OUT
                                    ---                                        ---
   EVAPOTRANSPIRATION =        1038226.21     EVAPOTRANSPIRATION =          15864.52
           STREAMFLOW =         310904.11             STREAMFLOW =          10918.35
     GW BOUNDARY FLOW =          30406.11       GW BOUNDARY FLOW =            724.10

   INFLOWS - OUTFLOWS =         194226.12     INFLOWS - OUTFLOWS =         227675.22
             --------                                   --------

 TOTAL STORAGE CHANGE =         195523.09         STORAGE CHANGE =         227703.52
       --------------                             --------------
         LAND SURFACE =          76960.22           LAND SURFACE =          76747.38
            SOIL ZONE =        1037645.24              SOIL ZONE =         171503.11
     UNSATURATED ZONE =        -787508.25       UNSATURATED ZONE =         -16457.62
       SATURATED ZONE =        -131574.11         SATURATED ZONE =          -4089.35

 OVERALL BUDGET ERROR =          -1296.98           BUDGET ERROR =            -28.30


  PERCENT DISCREPANCY =             -0.08    PERCENT DISCREPANCY =             -0.01



1
 SUMMARY VOLUMETRIC BUDGET FOR GSFLOW 
 DATE: 11 18 1980              CUMULATIVE TIME STEP:      49
 MODFLOW STRESS PERIOD      2     CURRENT TIME STEP:      49     ITERATIONS:       5

 -----------------------------------------------------------------------------------

   CUMULATIVE VOLUMES               L**3   RATES FOR THIS TIME STEP           L**3/T
   ------------------                      ------------------------

                                     IN                                         IN
                                     --                                         --
        PRECIPITATION =        1573762.54          PRECIPITATION =                  
           STREAMFLOW =                               STREAMFLOW =                  
     GW BOUNDARY FLOW =                         GW BOUNDARY FLOW =                  


                                    OUT                                        OUT
                                    ---                                        ---
   EVAPOTRANSPIRATION =        1127656.95     EVAPOTRANSPIRATION =          15179.84
           STREAMFLOW =         374915.08             STREAMFLOW =           9455.81
     GW BOUNDARY FLOW =          35474.80       GW BOUNDARY FLOW =            724.13

   INFLOWS - OUTFLOWS =          35715.72     INFLOWS - OUTFLOWS =         -25359.78
             --------                                   --------

 TOTAL STORAGE CHANGE =          37208.01         STORAGE CHANGE =         -25332.19
       --------------                             --------------
         LAND SURFACE =           8139.47           LAND SURFACE =          -4965.50
            SOIL ZONE =        1095140.74              SOIL ZONE =            567.23
     UNSATURATED ZONE =        -900849.50       UNSATURATED ZONE =         -15952.53
       SATURATED ZONE =        -165222.71         SATURATED ZONE =          -4981.39

 OVERALL BUDGET ERROR =          -1492.29           BUDGET ERROR =            -27.58


  PERCENT DISCREPANCY =             -0.09    PERCENT DISCREPANCY =             -0.11



1
 SUMMARY VOLUMETRIC BUDGET FOR GSFLOW 
 DATE: 11 25 1980              CUMULATIVE TIME STEP:      56
 MODFLOW STRESS PERIOD      2     CURRENT TIME STEP:      56     ITERATIONS:       6

 -----------------------------------------------------------------------------------

   CUMULATIVE VOLUMES               L**3   RATES FOR THIS TIME STEP           L**3/T
   ------------------                      ------------------------

                                     IN                                         IN
                                     --                                         --
        PRECIPITATION =        1648816.13          PRECIPITATION =                  
           STREAMFLOW =                               STREAMFLOW =                  
     GW BOUNDARY FLOW =                         GW BOUNDARY FLOW =                  


                                    OUT                                        OUT
                                    ---                                        ---
   EVAPOTRANSPIRATION =        1204952.65     EVAPOTRANSPIRATION =           9313.74
           STREAMFLOW =         443004.53             STREAMFLOW =          10084.56
     GW BOUNDARY FLOW =          40544.01       GW BOUNDARY FLOW =            724.22

   INFLOWS - OUTFLOWS =         -39685.06     INFLOWS - OUTFLOWS =         -20122.52
             --------                                   --------

 TOTAL STORAGE CHANGE =         -38021.89         STORAGE CHANGE =         -20099.69
       --------------                             --------------
         LAND SURFACE =          54136.41           LAND SURFACE =          -9258.02
            SOIL ZONE =        1120093.41              SOIL ZONE =           9966.09
     UNSATURATED ZONE =       -1010077.47       UNSATURATED ZONE =         -15339.16
       SATURATED ZONE =        -202174.24         SATURATED ZONE =          -5468.60

 OVERALL BUDGET ERROR =          -1663.17           BUDGET ERROR =            -22.84


  PERCENT DISCREPANCY =             -0.10    PERCENT DISCREPANCY =             -0.11



1
 SUMMARY VOLUMETRIC BUDGET FOR GSFLOW 
 DATE: 12 02 1980              CUMULATIVE TIME STEP:      63
 MODFLOW STRESS PERIOD      2     CURRENT TIME STEP:      63     ITERATIONS:       5

 -----------------------------------------------------------------------------------

   CUMULATIVE VOLUMES               L**3   RATES FOR THIS TIME STEP           L**3/T
   ------------------                      ------------------------

                                     IN                                         IN
                                     --                                         --
        PRECIPITATION =        2076621.55          PRECIPITATION =                  
           STREAMFLOW =                               STREAMFLOW =                  
     GW BOUNDARY FLOW =                         GW BOUNDARY FLOW =                  


                                    OUT                                        OUT
                                    ---                                        ---
   EVAPOTRANSPIRATION =        1392565.00     EVAPOTRANSPIRATION =          34142.10
           STREAMFLOW =         528669.65             STREAMFLOW =          15405.66
     GW BOUNDARY FLOW =          45615.32       GW BOUNDARY FLOW =            724.87

   INFLOWS - OUTFLOWS =         109771.58     INFLOWS - OUTFLOWS =         -50272.63
             --------                                   --------

 TOTAL STORAGE CHANGE =         111618.46         STORAGE CHANGE =         -50245.59
       --------------                             --------------
         LAND SURFACE =         157031.20           LAND SURFACE =         -76789.76
            SOIL ZONE =        1304651.59              SOIL ZONE =          44025.15
     UNSATURATED ZONE =       -1111029.83       UNSATURATED ZONE =         -12798.47
       SATURATED ZONE =        -239034.51         SATURATED ZONE =          -4682.52

 OVERALL BUDGET ERROR =          -1846.88           BUDGET ERROR =            -27.04


  PERCENT DISCREPANCY =             -0.09    PERCENT DISCREPANCY =             -0.05



1
 SUMMARY VOLUMETRIC BUDGET FOR GSFLOW 
 DATE: 12 09 1980              CUMULATIVE TIME STEP:      70
 MODFLOW STRESS PERIOD      2     CURRENT TIME STEP:      70     ITERATIONS:       5

 -----------------------------------------------------------------------------------

   CUMULATIVE VOLUMES               L**3   RATES FOR THIS TIME STEP           L**3/T
   ------------------                      ------------------------

                                     IN                                         IN
                                     --                                         --
        PRECIPITATION =        4284363.63          PRECIPITATION =                  
           STREAMFLOW =                               STREAMFLOW =                  
     GW BOUNDARY FLOW =                         GW BOUNDARY FLOW =                  


                                    OUT                                        OUT
                                    ---                                        ---
   EVAPOTRANSPIRATION =        1418203.78     EVAPOTRANSPIRATION =           3258.35
           STREAMFLOW =         628405.48             STREAMFLOW =          14470.09
     GW BOUNDARY FLOW =          50690.10       GW BOUNDARY FLOW =            725.05

   INFLOWS - OUTFLOWS =        2187064.27     INFLOWS - OUTFLOWS =         -18453.50
             --------                                   --------

 TOTAL STORAGE CHANGE =        2189096.90         STORAGE CHANGE =         -18427.01
       --------------                             --------------
         LAND SURFACE =        2337504.39           LAND SURFACE =          -3258.35
            SOIL ZONE =        1339440.26              SOIL ZONE =           5098.55
     UNSATURATED ZONE =       -1208436.37       UNSATURATED ZONE =         -14148.33
       SATURATED ZONE =        -279411.38         SATURATED ZONE =          -6118.88

 OVERALL BUDGET ERROR =          -2032.64           BUDGET ERROR =            -26.48


  PERCENT DISCREPANCY =             -0.05    PERCENT DISCREPANCY =             -0.14



1
 SUMMARY VOLUMETRIC BUDGET FOR GSFLOW 
 DATE: 12 16 1980              CUMULATIVE TIME STEP:      77
 MODFLOW STRESS PERIOD      2     CURRENT TIME STEP:      77     ITERATIONS:       5

 -----------------------------------------------------------------------------------

   CUMULATIVE VOLUMES               L**3   RATES FOR THIS TIME STEP           L**3/T
   ------------------                      ------------------------

                                     IN                                         IN
                                     --                                         --
        PRECIPITATION =        4284363.63          PRECIPITATION =                  
           STREAMFLOW =                               STREAMFLOW =                  
     GW BOUNDARY FLOW =                         GW BOUNDARY FLOW =                  


                                    OUT                                        OUT
                                    ---                                        ---
   EVAPOTRANSPIRATION =        1562835.32     EVAPOTRANSPIRATION =          34482.61
           STREAMFLOW =         748494.11             STREAMFLOW =          25000.30
     GW BOUNDARY FLOW =          55767.33       GW BOUNDARY FLOW =            725.92

   INFLOWS - OUTFLOWS =        1917266.87     INFLOWS - OUTFLOWS =         -60208.83
             --------                                   --------

 TOTAL STORAGE CHANGE =        1919472.38         STORAGE CHANGE =         -60182.11
       --------------                             --------------
         LAND SURFACE =        2017009.25           LAND SURFACE =        -133032.47
            SOIL ZONE =        1520727.12              SOIL ZONE =          86313.56
     UNSATURATED ZONE =       -1297627.81       UNSATURATED ZONE =          -8886.32
       SATURATED ZONE =        -320636.19         SATURATED ZONE =          -4576.88

 OVERALL BUDGET ERROR =          -2205.51           BUDGET ERROR =            -26.72


  PERCENT DISCREPANCY =             -0.05    PERCENT DISCREPANCY =             -0.04



1
 SUMMARY VOLUMETRIC BUDGET FOR GSFLOW 
 DATE: 12 23 1980              CUMULATIVE TIME STEP:      84
 MODFLOW STRESS PERIOD      2     CURRENT TIME STEP:      84     ITERATIONS:       6

 -----------------------------------------------------------------------------------

   CUMULATIVE VOLUMES               L**3   RATES FOR THIS TIME STEP           L**3/T
   ------------------                      ------------------------

                                     IN                                         IN
                                     --                                         --
        PRECIPITATION =        4516757.54          PRECIPITATION =                  
           STREAMFLOW =                               STREAMFLOW =                  
     GW BOUNDARY FLOW =                         GW BOUNDARY FLOW =                  


                                    OUT                                        OUT
                                    ---                                        ---
   EVAPOTRANSPIRATION =        1771073.14     EVAPOTRANSPIRATION =          35848.50
           STREAMFLOW =         978938.08             STREAMFLOW =          30916.50
     GW BOUNDARY FLOW =          60859.84       GW BOUNDARY FLOW =            728.14

   INFLOWS - OUTFLOWS =        1705886.48     INFLOWS - OUTFLOWS =         -67493.14
             --------                                   --------

 TOTAL STORAGE CHANGE =        1708240.96         STORAGE CHANGE =         -67475.54
       --------------                             --------------
         LAND SURFACE =        1391476.45           LAND SURFACE =         -50626.27
            SOIL ZONE =        2000994.71              SOIL ZONE =          -7203.70
     UNSATURATED ZONE =       -1335499.84       UNSATURATED ZONE =          -5060.26
       SATURATED ZONE =        -348730.36         SATURATED ZONE =          -4585.32

 OVERALL BUDGET ERROR =          -2354.49           BUDGET ERROR =            -17.60


  PERCENT DISCREPANCY =             -0.05    PERCENT DISCREPANCY =             -0.03



1
 SUMMARY VOLUMETRIC BUDGET FOR GSFLOW 
 DATE: 12 30 1980              CUMULATIVE TIME STEP:      91
 MODFLOW STRESS PERIOD      2     CURRENT TIME STEP:      91     ITERATIONS:       7

 -----------------------------------------------------------------------------------

   CUMULATIVE VOLUMES               L**3   RATES FOR THIS TIME STEP           L**3/T
   ------------------                      ------------------------

                                     IN                                         IN
                                     --                                         --
        PRECIPITATION =        4516757.54          PRECIPITATION =                  
           STREAMFLOW =                               STREAMFLOW =                  
     GW BOUNDARY FLOW =                         GW BOUNDARY FLOW =                  


                                    OUT                                        OUT
                                    ---                                        ---
   EVAPOTRANSPIRATION =        2138795.39     EVAPOTRANSPIRATION =          47015.27
           STREAMFLOW =        1227963.60             STREAMFLOW =          27550.33
     GW BOUNDARY FLOW =          65961.12       GW BOUNDARY FLOW =            728.65

   INFLOWS - OUTFLOWS =        1084037.42     INFLOWS - OUTFLOWS =         -75294.25
             --------                                   --------

 TOTAL STORAGE CHANGE =        1086488.55         STORAGE CHANGE =         -75283.05
       --------------                             --------------
         LAND SURFACE =         579625.21           LAND SURFACE =         -42433.18
            SOIL ZONE =        2218296.40              SOIL ZONE =         -25024.57
     UNSATURATED ZONE =       -1339753.77       UNSATURATED ZONE =          -3963.67
       SATURATED ZONE =        -371679.28         SATURATED ZONE =          -3861.63

 OVERALL BUDGET ERROR =          -2451.13           BUDGET ERROR =            -11.20


  PERCENT DISCREPANCY =             -0.05    PERCENT DISCREPANCY =             -0.01



1
 SUMMARY VOLUMETRIC BUDGET FOR GSFLOW 
 DATE: 01 06 1981              CUMULATIVE TIME STEP:      98
 MODFLOW STRESS PERIOD      2     CURRENT TIME STEP:      98     ITERATIONS:       6

 -----------------------------------------------------------------------------------

   CUMULATIVE VOLUMES               L**3   RATES FOR THIS TIME STEP           L**3/T
   ------------------                      ------------------------

                                     IN                                         IN
                                     --                                         --
        PRECIPITATION =        5004445.43          PRECIPITATION =                  
           STREAMFLOW =                               STREAMFLOW =                  
     GW BOUNDARY FLOW =                         GW BOUNDARY FLOW =                  


                                    OUT                                        OUT
                                    ---                                        ---
   EVAPOTRANSPIRATION =        2356482.56     EVAPOTRANSPIRATION =          18975.60
           STREAMFLOW =        1376565.10             STREAMFLOW =          20099.03
     GW BOUNDARY FLOW =          71054.23       GW BOUNDARY FLOW =            726.98

   INFLOWS - OUTFLOWS =        1200343.54     INFLOWS - OUTFLOWS =         -39801.62
             --------                                   --------

 TOTAL STORAGE CHANGE =        1202882.96         STORAGE CHANGE =         -39787.90
       --------------                             --------------
         LAND SURFACE =         840075.39           LAND SURFACE =         -25549.72
            SOIL ZONE =        2183766.88              SOIL ZONE =           3452.89
     UNSATURATED ZONE =       -1410137.25       UNSATURATED ZONE =         -11512.60
       SATURATED ZONE =        -410822.06         SATURATED ZONE =          -6178.48

 OVERALL BUDGET ERROR =          -2539.42           BUDGET ERROR =            -13.72


  PERCENT DISCREPANCY =             -0.05    PERCENT DISCREPANCY =             -0.03



1
 SUMMARY VOLUMETRIC BUDGET FOR GSFLOW 
 DATE: 01 13 1981              CUMULATIVE TIME STEP:     105
 MODFLOW STRESS PERIOD      2     CURRENT TIME STEP:     105     ITERATIONS:       5

 -----------------------------------------------------------------------------------

   CUMULATIVE VOLUMES               L**3   RATES FOR THIS TIME STEP           L**3/T
   ------------------                      ------------------------

                                     IN                                         IN
                                     --                                         --
        PRECIPITATION =        5004445.43          PRECIPITATION =                  
           STREAMFLOW =                               STREAMFLOW =                  
     GW BOUNDARY FLOW =                         GW BOUNDARY FLOW =                  


                                    OUT                                        OUT
                                    ---                                        ---
   EVAPOTRANSPIRATION =        2558228.68     EVAPOTRANSPIRATION =          41907.78
           STREAMFLOW =        1521171.29             STREAMFLOW =          20188.71
     GW BOUNDARY FLOW =          76141.29       GW BOUNDARY FLOW =            726.55

   INFLOWS - OUTFLOWS =         848904.18     INFLOWS - OUTFLOWS =         -62823.04
             --------                                   --------

 TOTAL STORAGE CHANGE =         851568.44         STORAGE CHANGE =         -62803.08
       --------------                             --------------
         LAND SURFACE =         624161.64           LAND SURFACE =         -38673.92
            SOIL ZONE =        2163514.02              SOIL ZONE =          -8336.67
     UNSATURATED ZONE =       -1480224.11       UNSATURATED ZONE =          -9153.09
       SATURATED ZONE =        -455883.11         SATURATED ZONE =          -6639.41

 OVERALL BUDGET ERROR =          -2664.27           BUDGET ERROR =            -19.96


  PERCENT DISCREPANCY =             -0.05    PERCENT DISCREPANCY =             -0.03



1
 SUMMARY VOLUMETRIC BUDGET FOR GSFLOW 
 DATE: 01 20 1981              CUMULATIVE TIME STEP:     112
 MODFLOW STRESS PERIOD      2     CURRENT TIME STEP:     112     ITERATIONS:       6

 -----------------------------------------------------------------------------------

   CUMULATIVE VOLUMES               L**3   RATES FOR THIS TIME STEP           L**3/T
   ------------------                      ------------------------

                                     IN                                         IN
                                     --                                         --
        PRECIPITATION =        5170466.84          PRECIPITATION =          41505.35
           STREAMFLOW =                               STREAMFLOW =                  
     GW BOUNDARY FLOW =                         GW BOUNDARY FLOW =                  


                                    OUT                                        OUT
                                    ---                                        ---
   EVAPOTRANSPIRATION =        2823141.01     EVAPOTRANSPIRATION =          30808.35
           STREAMFLOW =        1662737.04             STREAMFLOW =          19884.04
     GW BOUNDARY FLOW =          81226.29       GW BOUNDARY FLOW =            726.35

   INFLOWS - OUTFLOWS =         603362.50     INFLOWS - OUTFLOWS =          -9913.39
             --------                                   --------

 TOTAL STORAGE CHANGE =         606135.43         STORAGE CHANGE =          -9899.30
       --------------                             --------------
         LAND SURFACE =         464145.88           LAND SURFACE =           8501.89
            SOIL ZONE =        2159936.04              SOIL ZONE =          -8647.88
     UNSATURATED ZONE =       -1514688.37       UNSATURATED ZONE =          -2823.58
       SATURATED ZONE =        -503258.12         SATURATED ZONE =          -6929.74

 OVERALL BUDGET ERROR =          -2772.93           BUDGET ERROR =            -14.09


  PERCENT DISCREPANCY =             -0.05    PERCENT DISCREPANCY =             -0.03



1
 SUMMARY VOLUMETRIC BUDGET FOR GSFLOW 
 DATE: 01 27 1981              CUMULATIVE TIME STEP:     119
 MODFLOW STRESS PERIOD      2     CURRENT TIME STEP:     119     ITERATIONS:       6

 -----------------------------------------------------------------------------------

   CUMULATIVE VOLUMES               L**3   RATES FOR THIS TIME STEP           L**3/T
   ------------------                      ------------------------

                                     IN                                         IN
                                     --                                         --
        PRECIPITATION =        8646540.08          PRECIPITATION =        2936503.63
           STREAMFLOW =                               STREAMFLOW =                  
     GW BOUNDARY FLOW =                         GW BOUNDARY FLOW =                  


                                    OUT                                        OUT
                                    ---                                        ---
   EVAPOTRANSPIRATION =        3046095.31     EVAPOTRANSPIRATION =          12639.57
           STREAMFLOW =        1805686.32             STREAMFLOW =          18496.52
     GW BOUNDARY FLOW =          86310.36       GW BOUNDARY FLOW =            726.06

   INFLOWS - OUTFLOWS =        3708448.09     INFLOWS - OUTFLOWS =        2904641.48
             --------                                   --------

 TOTAL STORAGE CHANGE =        3711298.11         STORAGE CHANGE =        2904651.89
       --------------                             --------------
         LAND SURFACE =        3592460.11           LAND SURFACE =        2923864.12
            SOIL ZONE =        2181214.50              SOIL ZONE =          -6217.26
     UNSATURATED ZONE =       -1511588.02       UNSATURATED ZONE =          -5736.82
       SATURATED ZONE =        -550788.49         SATURATED ZONE =          -7258.15

 OVERALL BUDGET ERROR =          -2850.02           BUDGET ERROR =            -10.41


  PERCENT DISCREPANCY =             -0.03    PERCENT DISCREPANCY =             -0.00



1
 SUMMARY VOLUMETRIC BUDGET FOR GSFLOW 
 DATE: 02 03 1981              CUMULATIVE TIME STEP:     126
 MODFLOW STRESS PERIOD      2     CURRENT TIME STEP:     126     ITERATIONS:       6

 -----------------------------------------------------------------------------------

   CUMULATIVE VOLUMES               L**3   RATES FOR THIS TIME STEP           L**3/T
   ------------------                      ------------------------

                                     IN                                         IN
                                     --                                         --
        PRECIPITATION =        1.1739D+07          PRECIPITATION =                  
           STREAMFLOW =                               STREAMFLOW =                  
     GW BOUNDARY FLOW =                         GW BOUNDARY FLOW =                  


                                    OUT                                        OUT
                                    ---                                        ---
   EVAPOTRANSPIRATION =        3081286.67     EVAPOTRANSPIRATION =           7106.06
           STREAMFLOW =        1931915.16             STREAMFLOW =          17952.28
     GW BOUNDARY FLOW =          91391.67       GW BOUNDARY FLOW =            725.84

   INFLOWS - OUTFLOWS =        6634095.27     INFLOWS - OUTFLOWS =         -25784.18
             --------                                   --------

 TOTAL STORAGE CHANGE =        6637035.76         STORAGE CHANGE =         -25772.57
       --------------                             --------------
         LAND SURFACE =        6649417.45           LAND SURFACE =          -7106.06
            SOIL ZONE =        2173900.41              SOIL ZONE =            553.27
     UNSATURATED ZONE =       -1581641.02       UNSATURATED ZONE =         -11176.07
       SATURATED ZONE =        -604641.09         SATURATED ZONE =          -8043.71

 OVERALL BUDGET ERROR =          -2940.48           BUDGET ERROR =            -11.61


  PERCENT DISCREPANCY =             -0.03    PERCENT DISCREPANCY =             -0.05



1
 SUMMARY VOLUMETRIC BUDGET FOR GSFLOW 
 DATE: 02 10 1981              CUMULATIVE TIME STEP:     133
 MODFLOW STRESS PERIOD      2     CURRENT TIME STEP:     133     ITERATIONS:       5

 -----------------------------------------------------------------------------------

   CUMULATIVE VOLUMES               L**3   RATES FOR THIS TIME STEP           L**3/T
   ------------------                      ------------------------

                                     IN                                         IN
                                     --                                         --
        PRECIPITATION =        1.1838D+07          PRECIPITATION =                  
           STREAMFLOW =                               STREAMFLOW =                  
     GW BOUNDARY FLOW =                         GW BOUNDARY FLOW =                  


                                    OUT                                        OUT
                                    ---                                        ---
   EVAPOTRANSPIRATION =        3202390.19     EVAPOTRANSPIRATION =          32343.27
           STREAMFLOW =        2057824.82             STREAMFLOW =          18009.20
     GW BOUNDARY FLOW =          96472.58       GW BOUNDARY FLOW =            725.84

   INFLOWS - OUTFLOWS =        6481565.69     INFLOWS - OUTFLOWS =         -51078.31
             --------                                   --------

 TOTAL STORAGE CHANGE =        6484615.85         STORAGE CHANGE =         -51059.32
       --------------                             --------------
         LAND SURFACE =        6627878.44           LAND SURFACE =         -32343.27
            SOIL ZONE =        2178146.17              SOIL ZONE =            517.12
     UNSATURATED ZONE =       -1657574.64       UNSATURATED ZONE =         -10467.72
       SATURATED ZONE =        -663834.12         SATURATED ZONE =          -8765.44

 OVERALL BUDGET ERROR =          -3050.17           BUDGET ERROR =            -18.99


  PERCENT DISCREPANCY =             -0.03    PERCENT DISCREPANCY =             -0.04



1
 SUMMARY VOLUMETRIC BUDGET FOR GSFLOW 
 DATE: 02 17 1981              CUMULATIVE TIME STEP:     140
 MODFLOW STRESS PERIOD      2     CURRENT TIME STEP:     140     ITERATIONS:      10

 -----------------------------------------------------------------------------------

   CUMULATIVE VOLUMES               L**3   RATES FOR THIS TIME STEP           L**3/T
   ------------------                      ------------------------

                                     IN                                         IN
                                     --                                         --
        PRECIPITATION =        1.2765D+07          PRECIPITATION =          68929.28
           STREAMFLOW =                               STREAMFLOW =                  
     GW BOUNDARY FLOW =                         GW BOUNDARY FLOW =                  


                                    OUT                                        OUT
                                    ---                                        ---
   EVAPOTRANSPIRATION =        3528157.07     EVAPOTRANSPIRATION =          59831.41
           STREAMFLOW =        2572673.73             STREAMFLOW =         120237.56
     GW BOUNDARY FLOW =         101580.49       GW BOUNDARY FLOW =            734.17

   INFLOWS - OUTFLOWS =        6562557.80     INFLOWS - OUTFLOWS =        -111873.86
             --------                                   --------

 TOTAL STORAGE CHANGE =        6565724.39         STORAGE CHANGE =        -111861.11
       --------------                             --------------
         LAND SURFACE =        5733342.75           LAND SURFACE =        -263707.47
            SOIL ZONE =        2942032.84              SOIL ZONE =          73429.20
     UNSATURATED ZONE =       -1425688.34       UNSATURATED ZONE =          76509.21
       SATURATED ZONE =        -683962.85         SATURATED ZONE =           1907.95

 OVERALL BUDGET ERROR =          -3166.59           BUDGET ERROR =            -12.75


  PERCENT DISCREPANCY =             -0.02    PERCENT DISCREPANCY =             -0.01



1
 SUMMARY VOLUMETRIC BUDGET FOR GSFLOW 
 DATE: 02 24 1981              CUMULATIVE TIME STEP:     147
 MODFLOW STRESS PERIOD      2     CURRENT TIME STEP:     147     ITERATIONS:       9

 -----------------------------------------------------------------------------------

   CUMULATIVE VOLUMES               L**3   RATES FOR THIS TIME STEP           L**3/T
   ------------------                      ------------------------

                                     IN                                         IN
                                     --                                         --
        PRECIPITATION =        1.3179D+07          PRECIPITATION =         344646.37
           STREAMFLOW =                               STREAMFLOW =                  
     GW BOUNDARY FLOW =                         GW BOUNDARY FLOW =                  


                                    OUT                                        OUT
                                    ---                                        ---
   EVAPOTRANSPIRATION =        3860533.17     EVAPOTRANSPIRATION =          18156.56
           STREAMFLOW =        3122814.27             STREAMFLOW =          49891.12
     GW BOUNDARY FLOW =         106714.36       GW BOUNDARY FLOW =            731.99

   INFLOWS - OUTFLOWS =        6088482.95     INFLOWS - OUTFLOWS =         275866.69
             --------                                   --------

 TOTAL STORAGE CHANGE =        6091681.25         STORAGE CHANGE =         275866.43
       --------------                             --------------
         LAND SURFACE =        5134001.57           LAND SURFACE =         302140.01
            SOIL ZONE =        2688454.02              SOIL ZONE =         -55936.16
     UNSATURATED ZONE =       -1069121.57       UNSATURATED ZONE =          27429.87
       SATURATED ZONE =        -661652.76         SATURATED ZONE =           2232.71

 OVERALL BUDGET ERROR =          -3198.30           BUDGET ERROR =              0.26


  PERCENT DISCREPANCY =             -0.02    PERCENT DISCREPANCY =              0.00



1
 SUMMARY VOLUMETRIC BUDGET FOR GSFLOW 
 DATE: 03 03 1981              CUMULATIVE TIME STEP:     154
 MODFLOW STRESS PERIOD      2     CURRENT TIME STEP:     154     ITERATIONS:       8

 -----------------------------------------------------------------------------------

   CUMULATIVE VOLUMES               L**3   RATES FOR THIS TIME STEP           L**3/T
   ------------------                      ------------------------

                                     IN                                         IN
                                     --                                         --
        PRECIPITATION =        1.3447D+07          PRECIPITATION =                  
           STREAMFLOW =                               STREAMFLOW =                  
     GW BOUNDARY FLOW =                         GW BOUNDARY FLOW =                  


                                    OUT                                        OUT
                                    ---                                        ---
   EVAPOTRANSPIRATION =        4007319.13     EVAPOTRANSPIRATION =          40644.00
           STREAMFLOW =        3342565.91             STREAMFLOW =          27050.93
     GW BOUNDARY FLOW =         111821.66       GW BOUNDARY FLOW =            728.39

   INFLOWS - OUTFLOWS =        5984896.34     INFLOWS - OUTFLOWS =         -68423.32
             --------                                   --------

 TOTAL STORAGE CHANGE =        5988053.59         STORAGE CHANGE =         -68428.01
       --------------                             --------------
         LAND SURFACE =        5236571.47           LAND SURFACE =         -57449.18
            SOIL ZONE =        2482824.85              SOIL ZONE =            522.81
     UNSATURATED ZONE =       -1064276.35       UNSATURATED ZONE =          -9342.94
       SATURATED ZONE =        -667066.38         SATURATED ZONE =          -2158.69

 OVERALL BUDGET ERROR =          -3157.26           BUDGET ERROR =              4.69


  PERCENT DISCREPANCY =             -0.02    PERCENT DISCREPANCY =              0.01



1
 SUMMARY VOLUMETRIC BUDGET FOR GSFLOW 
 DATE: 03 10 1981              CUMULATIVE TIME STEP:     161
 MODFLOW STRESS PERIOD      2     CURRENT TIME STEP:     161     ITERATIONS:       7

 -----------------------------------------------------------------------------------

   CUMULATIVE VOLUMES               L**3   RATES FOR THIS TIME STEP           L**3/T
   ------------------                      ------------------------

                                     IN                                         IN
                                     --                                         --
        PRECIPITATION =        1.3493D+07          PRECIPITATION =                  
           STREAMFLOW =                               STREAMFLOW =                  
     GW BOUNDARY FLOW =                         GW BOUNDARY FLOW =                  


                                    OUT                                        OUT
                                    ---                                        ---
   EVAPOTRANSPIRATION =        4319179.27     EVAPOTRANSPIRATION =          67192.35
           STREAMFLOW =        3562888.43             STREAMFLOW =          40076.76
     GW BOUNDARY FLOW =         116919.21       GW BOUNDARY FLOW =            728.92

   INFLOWS - OUTFLOWS =        5493954.24     INFLOWS - OUTFLOWS =        -107998.03
             --------                                   --------

 TOTAL STORAGE CHANGE =        5497102.09         STORAGE CHANGE =        -107998.33
       --------------                             --------------
         LAND SURFACE =        4665498.39           LAND SURFACE =        -147188.93
            SOIL ZONE =        2571319.76              SOIL ZONE =          24736.76
     UNSATURATED ZONE =       -1056304.10       UNSATURATED ZONE =          15974.51
       SATURATED ZONE =        -683411.96         SATURATED ZONE =          -1520.66

 OVERALL BUDGET ERROR =          -3147.84           BUDGET ERROR =              0.30


  PERCENT DISCREPANCY =             -0.02    PERCENT DISCREPANCY =              0.00



1
 SUMMARY VOLUMETRIC BUDGET FOR GSFLOW 
 DATE: 03 17 1981              CUMULATIVE TIME STEP:     168
 MODFLOW STRESS PERIOD      2     CURRENT TIME STEP:     168     ITERATIONS:       6

 -----------------------------------------------------------------------------------

   CUMULATIVE VOLUMES               L**3   RATES FOR THIS TIME STEP           L**3/T
   ------------------                      ------------------------

                                     IN                                         IN
                                     --                                         --
        PRECIPITATION =        1.3744D+07          PRECIPITATION =                  
           STREAMFLOW =                               STREAMFLOW =                  
     GW BOUNDARY FLOW =                         GW BOUNDARY FLOW =                  


                                    OUT                                        OUT
                                    ---                                        ---
   EVAPOTRANSPIRATION =        4635851.94     EVAPOTRANSPIRATION =          33262.65
           STREAMFLOW =        3778578.72             STREAMFLOW =          23544.90
     GW BOUNDARY FLOW =         122018.61       GW BOUNDARY FLOW =            727.79

   INFLOWS - OUTFLOWS =        5208041.62     INFLOWS - OUTFLOWS =         -57535.34
             --------                                   --------

 TOTAL STORAGE CHANGE =        5211174.57         STORAGE CHANGE =         -57532.92
       --------------                             --------------
         LAND SURFACE =        4532338.77           LAND SURFACE =         -32994.50
            SOIL ZONE =        2435388.74              SOIL ZONE =          -4973.62
     UNSATURATED ZONE =       -1050007.36       UNSATURATED ZONE =         -14418.95
       SATURATED ZONE =        -706545.57         SATURATED ZONE =          -5145.85

 OVERALL BUDGET ERROR =          -3132.96           BUDGET ERROR =             -2.42


  PERCENT DISCREPANCY =             -0.02    PERCENT DISCREPANCY =             -0.00



1
 SUMMARY VOLUMETRIC BUDGET FOR GSFLOW 
 DATE: 03 24 1981              CUMULATIVE TIME STEP:     175
 MODFLOW STRESS PERIOD      2     CURRENT TIME STEP:     175     ITERATIONS:       6

 -----------------------------------------------------------------------------------

   CUMULATIVE VOLUMES               L**3   RATES FOR THIS TIME STEP           L**3/T
   ------------------                      ------------------------

                                     IN                                         IN
                                     --                                         --
        PRECIPITATION =        1.4367D+07          PRECIPITATION =                  
           STREAMFLOW =                               STREAMFLOW =                  
     GW BOUNDARY FLOW =                         GW BOUNDARY FLOW =                  


                                    OUT                                        OUT
                                    ---                                        ---
   EVAPOTRANSPIRATION =        4955675.22     EVAPOTRANSPIRATION =          80764.17
           STREAMFLOW =        3943015.68             STREAMFLOW =          24980.28
     GW BOUNDARY FLOW =         127109.41       GW BOUNDARY FLOW =            727.15

   INFLOWS - OUTFLOWS =        5340945.21     INFLOWS - OUTFLOWS =        -106471.59
             --------                                   --------

 TOTAL STORAGE CHANGE =        5344108.47         STORAGE CHANGE =        -106468.65
       --------------                             --------------
         LAND SURFACE =        4882235.57           LAND SURFACE =         -56598.13
            SOIL ZONE =        2337201.27              SOIL ZONE =         -38101.49
     UNSATURATED ZONE =       -1127688.78       UNSATURATED ZONE =          -5776.01
       SATURATED ZONE =        -747639.59         SATURATED ZONE =          -5993.01

 OVERALL BUDGET ERROR =          -3163.25           BUDGET ERROR =             -2.94


  PERCENT DISCREPANCY =             -0.02    PERCENT DISCREPANCY =             -0.00



1
 SUMMARY VOLUMETRIC BUDGET FOR GSFLOW 
 DATE: 03 31 1981              CUMULATIVE TIME STEP:     182
 MODFLOW STRESS PERIOD      2     CURRENT TIME STEP:     182     ITERATIONS:       8

 -----------------------------------------------------------------------------------

   CUMULATIVE VOLUMES               L**3   RATES FOR THIS TIME STEP           L**3/T
   ------------------                      ------------------------

                                     IN                                         IN
                                     --                                         --
        PRECIPITATION =        1.5777D+07          PRECIPITATION =                  
           STREAMFLOW =                               STREAMFLOW =                  
     GW BOUNDARY FLOW =                         GW BOUNDARY FLOW =                  


                                    OUT                                        OUT
                                    ---                                        ---
   EVAPOTRANSPIRATION =        5343848.52     EVAPOTRANSPIRATION =          42424.06
           STREAMFLOW =        4388960.66             STREAMFLOW =          33493.78
     GW BOUNDARY FLOW =         132224.89       GW BOUNDARY FLOW =            729.64

   INFLOWS - OUTFLOWS =        5911713.92     INFLOWS - OUTFLOWS =         -76647.48
             --------                                   --------

 TOTAL STORAGE CHANGE =        5914873.10         STORAGE CHANGE =         -76653.38
       --------------                             --------------
         LAND SURFACE =        5101875.85           LAND SURFACE =         -42987.31
            SOIL ZONE =        2503519.52              SOIL ZONE =         -32420.68
     UNSATURATED ZONE =        -936573.96       UNSATURATED ZONE =           1464.34
       SATURATED ZONE =        -753948.31         SATURATED ZONE =          -2709.73

 OVERALL BUDGET ERROR =          -3159.19           BUDGET ERROR =              5.91


  PERCENT DISCREPANCY =             -0.02    PERCENT DISCREPANCY =              0.01



1
 SUMMARY VOLUMETRIC BUDGET FOR GSFLOW 
 DATE: 04 07 1981              CUMULATIVE TIME STEP:     189
 MODFLOW STRESS PERIOD      2     CURRENT TIME STEP:     189     ITERATIONS:       7

 -----------------------------------------------------------------------------------

   CUMULATIVE VOLUMES               L**3   RATES FOR THIS TIME STEP           L**3/T
   ------------------                      ------------------------

                                     IN                                         IN
                                     --                                         --
        PRECIPITATION =        1.6121D+07          PRECIPITATION =                  
           STREAMFLOW =                               STREAMFLOW =                  
     GW BOUNDARY FLOW =                         GW BOUNDARY FLOW =                  


                                    OUT                                        OUT
                                    ---                                        ---
   EVAPOTRANSPIRATION =        5938297.32     EVAPOTRANSPIRATION =          97287.85
           STREAMFLOW =        4682281.53             STREAMFLOW =          41922.56
     GW BOUNDARY FLOW =         137333.21       GW BOUNDARY FLOW =            730.19

   INFLOWS - OUTFLOWS =        5363555.54     INFLOWS - OUTFLOWS =        -139940.60
             --------                                   --------

 TOTAL STORAGE CHANGE =        5366697.77         STORAGE CHANGE =        -139943.93
       --------------                             --------------
         LAND SURFACE =        4536824.58           LAND SURFACE =        -138203.79
            SOIL ZONE =        2465201.93              SOIL ZONE =         -11772.34
     UNSATURATED ZONE =        -870211.08       UNSATURATED ZONE =          11252.02
       SATURATED ZONE =        -765117.66         SATURATED ZONE =          -1219.82

 OVERALL BUDGET ERROR =          -3142.22           BUDGET ERROR =              3.32


  PERCENT DISCREPANCY =             -0.02    PERCENT DISCREPANCY =              0.00



1
 SUMMARY VOLUMETRIC BUDGET FOR GSFLOW 
 DATE: 04 14 1981              CUMULATIVE TIME STEP:     196
 MODFLOW STRESS PERIOD      2     CURRENT TIME STEP:     196     ITERATIONS:       9

 -----------------------------------------------------------------------------------

   CUMULATIVE VOLUMES               L**3   RATES FOR THIS TIME STEP           L**3/T
   ------------------                      ------------------------

                                     IN                                         IN
                                     --                                         --
        PRECIPITATION =        1.6121D+07          PRECIPITATION =                  
           STREAMFLOW =                               STREAMFLOW =                  
     GW BOUNDARY FLOW =                         GW BOUNDARY FLOW =                  


                                    OUT                                        OUT
                                    ---                                        ---
   EVAPOTRANSPIRATION =        6801726.48     EVAPOTRANSPIRATION =         187136.52
           STREAMFLOW =        5017980.41             STREAMFLOW =          60587.97
     GW BOUNDARY FLOW =         142445.54       GW BOUNDARY FLOW =            730.75

   INFLOWS - OUTFLOWS =        4159315.17     INFLOWS - OUTFLOWS =        -248455.24
             --------                                   --------

 TOTAL STORAGE CHANGE =        4162449.10         STORAGE CHANGE =        -248453.92
       --------------                             --------------
         LAND SURFACE =        3249108.93           LAND SURFACE =        -276414.16
            SOIL ZONE =        2436994.38              SOIL ZONE =           -695.12
     UNSATURATED ZONE =        -755410.96       UNSATURATED ZONE =          27272.11
       SATURATED ZONE =        -768243.26         SATURATED ZONE =           1383.26

 OVERALL BUDGET ERROR =          -3133.92           BUDGET ERROR =             -1.32


  PERCENT DISCREPANCY =             -0.02    PERCENT DISCREPANCY =             -0.00



1
 SUMMARY VOLUMETRIC BUDGET FOR GSFLOW 
 DATE: 04 21 1981              CUMULATIVE TIME STEP:     203
 MODFLOW STRESS PERIOD      2     CURRENT TIME STEP:     203     ITERATIONS:       9

 -----------------------------------------------------------------------------------

   CUMULATIVE VOLUMES               L**3   RATES FOR THIS TIME STEP           L**3/T
   ------------------                      ------------------------

                                     IN                                         IN
                                     --                                         --
        PRECIPITATION =        1.6310D+07          PRECIPITATION =                  
           STREAMFLOW =                               STREAMFLOW =                  
     GW BOUNDARY FLOW =                         GW BOUNDARY FLOW =                  


                                    OUT                                        OUT
                                    ---                                        ---
   EVAPOTRANSPIRATION =        7846882.75     EVAPOTRANSPIRATION =         153795.97
           STREAMFLOW =        5402938.12             STREAMFLOW =          53625.91
     GW BOUNDARY FLOW =         147556.51       GW BOUNDARY FLOW =            729.72

   INFLOWS - OUTFLOWS =        2912865.25     INFLOWS - OUTFLOWS =        -208151.60
             --------                                   --------

 TOTAL STORAGE CHANGE =        2915991.20         STORAGE CHANGE =        -208153.92
       --------------                             --------------
         LAND SURFACE =        1941586.43           LAND SURFACE =        -141315.80
            SOIL ZONE =        2322307.70              SOIL ZONE =         -93464.60
     UNSATURATED ZONE =        -594082.62       UNSATURATED ZONE =          23459.80
       SATURATED ZONE =        -753820.32         SATURATED ZONE =           3166.69

 OVERALL BUDGET ERROR =          -3125.95           BUDGET ERROR =              2.31


  PERCENT DISCREPANCY =             -0.02    PERCENT DISCREPANCY =              0.00



1
 SUMMARY VOLUMETRIC BUDGET FOR GSFLOW 
 DATE: 04 28 1981              CUMULATIVE TIME STEP:     210
 MODFLOW STRESS PERIOD      2     CURRENT TIME STEP:     210     ITERATIONS:      10

 -----------------------------------------------------------------------------------

   CUMULATIVE VOLUMES               L**3   RATES FOR THIS TIME STEP           L**3/T
   ------------------                      ------------------------

                                     IN                                         IN
                                     --                                         --
        PRECIPITATION =        1.6515D+07          PRECIPITATION =                  
           STREAMFLOW =                               STREAMFLOW =                  
     GW BOUNDARY FLOW =                         GW BOUNDARY FLOW =                  


                                    OUT                                        OUT
                                    ---                                        ---
   EVAPOTRANSPIRATION =        9105141.14     EVAPOTRANSPIRATION =         210624.68
           STREAMFLOW =        5662219.27             STREAMFLOW =          30379.62
     GW BOUNDARY FLOW =         152653.76       GW BOUNDARY FLOW =            727.00

   INFLOWS - OUTFLOWS =        1595418.73     INFLOWS - OUTFLOWS =        -241731.29
             --------                                   --------

 TOTAL STORAGE CHANGE =        1598522.35         STORAGE CHANGE =        -241732.84
       --------------                             --------------
         LAND SURFACE =        1047886.51           LAND SURFACE =        -108965.88
            SOIL ZONE =        1829203.92              SOIL ZONE =        -138014.08
     UNSATURATED ZONE =        -537856.06       UNSATURATED ZONE =           3776.30
       SATURATED ZONE =        -740712.02         SATURATED ZONE =           1470.83

 OVERALL BUDGET ERROR =          -3103.63           BUDGET ERROR =              1.55


  PERCENT DISCREPANCY =             -0.02    PERCENT DISCREPANCY =              0.00



1
 SUMMARY VOLUMETRIC BUDGET FOR GSFLOW 
 DATE: 05 05 1981              CUMULATIVE TIME STEP:     217
 MODFLOW STRESS PERIOD      2     CURRENT TIME STEP:     217     ITERATIONS:      10

 -----------------------------------------------------------------------------------

   CUMULATIVE VOLUMES               L**3   RATES FOR THIS TIME STEP           L**3/T
   ------------------                      ------------------------

                                     IN                                         IN
                                     --                                         --
        PRECIPITATION =        1.6515D+07          PRECIPITATION =                  
           STREAMFLOW =                               STREAMFLOW =                  
     GW BOUNDARY FLOW =                         GW BOUNDARY FLOW =                  


                                    OUT                                        OUT
                                    ---                                        ---
   EVAPOTRANSPIRATION =        9962262.34     EVAPOTRANSPIRATION =          46992.03
           STREAMFLOW =        5784946.58             STREAMFLOW =          11641.56
     GW BOUNDARY FLOW =         157732.43       GW BOUNDARY FLOW =            724.45

   INFLOWS - OUTFLOWS =         610491.54     INFLOWS - OUTFLOWS =         -59358.05
             --------                                   --------

 TOTAL STORAGE CHANGE =         613595.84         STORAGE CHANGE =         -59355.25
       --------------                             --------------
         LAND SURFACE =         583908.85           LAND SURFACE =         -19597.75
            SOIL ZONE =        1384763.16              SOIL ZONE =         -23316.03
     UNSATURATED ZONE =        -603756.50       UNSATURATED ZONE =         -13889.80
       SATURATED ZONE =        -751319.67         SATURATED ZONE =          -2551.68

 OVERALL BUDGET ERROR =          -3104.30           BUDGET ERROR =             -2.79


  PERCENT DISCREPANCY =             -0.02    PERCENT DISCREPANCY =             -0.00



1
 SUMMARY VOLUMETRIC BUDGET FOR GSFLOW 
 DATE: 05 12 1981              CUMULATIVE TIME STEP:     224
 MODFLOW STRESS PERIOD      2     CURRENT TIME STEP:     224     ITERATIONS:      10

 -----------------------------------------------------------------------------------

   CUMULATIVE VOLUMES               L**3   RATES FOR THIS TIME STEP           L**3/T
   ------------------                      ------------------------

                                     IN                                         IN
                                     --                                         --
        PRECIPITATION =        1.6515D+07          PRECIPITATION =                  
           STREAMFLOW =                               STREAMFLOW =                  
     GW BOUNDARY FLOW =                         GW BOUNDARY FLOW =                  


                                    OUT                                        OUT
                                    ---                                        ---
   EVAPOTRANSPIRATION =        1.0494D+07     EVAPOTRANSPIRATION =         101678.89
           STREAMFLOW =        5865548.59             STREAMFLOW =          12766.69
     GW BOUNDARY FLOW =         162799.75       GW BOUNDARY FLOW =            723.81

   INFLOWS - OUTFLOWS =          -7070.71     INFLOWS - OUTFLOWS =        -115169.38
             --------                                   --------

 TOTAL STORAGE CHANGE =          -3942.42         STORAGE CHANGE =        -115164.82
       --------------                             --------------
         LAND SURFACE =         364139.12           LAND SURFACE =         -39545.55
            SOIL ZONE =        1103380.36              SOIL ZONE =         -60831.14
     UNSATURATED ZONE =        -692918.90       UNSATURATED ZONE =         -10034.84
       SATURATED ZONE =        -778542.99         SATURATED ZONE =          -4753.28

 OVERALL BUDGET ERROR =          -3128.29           BUDGET ERROR =             -4.56


  PERCENT DISCREPANCY =             -0.02    PERCENT DISCREPANCY =             -0.00



1
 SUMMARY VOLUMETRIC BUDGET FOR GSFLOW 
 DATE: 05 19 1981              CUMULATIVE TIME STEP:     231
 MODFLOW STRESS PERIOD      2     CURRENT TIME STEP:     231     ITERATIONS:      12

 -----------------------------------------------------------------------------------

   CUMULATIVE VOLUMES               L**3   RATES FOR THIS TIME STEP           L**3/T
   ------------------                      ------------------------

                                     IN                                         IN
                                     --                                         --
        PRECIPITATION =        1.7837D+07          PRECIPITATION =         169045.43
           STREAMFLOW =                               STREAMFLOW =                  
     GW BOUNDARY FLOW =                         GW BOUNDARY FLOW =                  


                                    OUT                                        OUT
                                    ---                                        ---
   EVAPOTRANSPIRATION =        1.0840D+07     EVAPOTRANSPIRATION =          31098.89
           STREAMFLOW =        6019685.41             STREAMFLOW =          31730.92
     GW BOUNDARY FLOW =         167869.70       GW BOUNDARY FLOW =            725.87

   INFLOWS - OUTFLOWS =         809414.30     INFLOWS - OUTFLOWS =         105489.74
             --------                                   --------

 TOTAL STORAGE CHANGE =         812572.11         STORAGE CHANGE =         105493.94
       --------------                             --------------
         LAND SURFACE =         315733.71           LAND SURFACE =          16905.78
            SOIL ZONE =        2040066.41              SOIL ZONE =          86013.95
     UNSATURATED ZONE =        -728968.09       UNSATURATED ZONE =           6875.20
       SATURATED ZONE =        -814259.92         SATURATED ZONE =          -4300.99

 OVERALL BUDGET ERROR =          -3157.81           BUDGET ERROR =             -4.20


  PERCENT DISCREPANCY =             -0.02    PERCENT DISCREPANCY =             -0.00



1
 SUMMARY VOLUMETRIC BUDGET FOR GSFLOW 
 DATE: 05 26 1981              CUMULATIVE TIME STEP:     238
 MODFLOW STRESS PERIOD      2     CURRENT TIME STEP:     238     ITERATIONS:      11

 -----------------------------------------------------------------------------------

   CUMULATIVE VOLUMES               L**3   RATES FOR THIS TIME STEP           L**3/T
   ------------------                      ------------------------

                                     IN                                         IN
                                     --                                         --
        PRECIPITATION =        1.8252D+07          PRECIPITATION =         284303.67
           STREAMFLOW =                               STREAMFLOW =                  
     GW BOUNDARY FLOW =                         GW BOUNDARY FLOW =                  


                                    OUT                                        OUT
                                    ---                                        ---
   EVAPOTRANSPIRATION =        1.1633D+07     EVAPOTRANSPIRATION =         126247.52
           STREAMFLOW =        6157354.04             STREAMFLOW =          24114.79
     GW BOUNDARY FLOW =         172943.45       GW BOUNDARY FLOW =            724.56

   INFLOWS - OUTFLOWS =         288808.27     INFLOWS - OUTFLOWS =         133216.80
             --------                                   --------

 TOTAL STORAGE CHANGE =         291988.55         STORAGE CHANGE =         133221.43
       --------------                             --------------
         LAND SURFACE =         197572.68           LAND SURFACE =         -13397.86
            SOIL ZONE =        1705960.25              SOIL ZONE =         158526.78
     UNSATURATED ZONE =        -755240.50       UNSATURATED ZONE =          -6224.81
       SATURATED ZONE =        -856303.87         SATURATED ZONE =          -5682.69

 OVERALL BUDGET ERROR =          -3180.28           BUDGET ERROR =             -4.62


  PERCENT DISCREPANCY =             -0.02    PERCENT DISCREPANCY =             -0.00



1
 SUMMARY VOLUMETRIC BUDGET FOR GSFLOW 
 DATE: 06 02 1981              CUMULATIVE TIME STEP:     245
 MODFLOW STRESS PERIOD      2     CURRENT TIME STEP:     245     ITERATIONS:       9

 -----------------------------------------------------------------------------------

   CUMULATIVE VOLUMES               L**3   RATES FOR THIS TIME STEP           L**3/T
   ------------------                      ------------------------

                                     IN                                         IN
                                     --                                         --
        PRECIPITATION =        1.8318D+07          PRECIPITATION =          50869.96
           STREAMFLOW =                               STREAMFLOW =                  
     GW BOUNDARY FLOW =                         GW BOUNDARY FLOW =                  


                                    OUT                                        OUT
                                    ---                                        ---
   EVAPOTRANSPIRATION =        1.2462D+07     EVAPOTRANSPIRATION =          66756.07
           STREAMFLOW =        6243413.91             STREAMFLOW =           9072.05
     GW BOUNDARY FLOW =         178009.16       GW BOUNDARY FLOW =            722.98

   INFLOWS - OUTFLOWS =        -565636.34     INFLOWS - OUTFLOWS =         -25681.14
             --------                                   --------

 TOTAL STORAGE CHANGE =        -562418.75         STORAGE CHANGE =         -25675.28
       --------------                             --------------
         LAND SURFACE =         119474.97           LAND SURFACE =          25659.25
            SOIL ZONE =        1058842.95              SOIL ZONE =         -31230.88
     UNSATURATED ZONE =        -832380.62       UNSATURATED ZONE =         -12113.66
       SATURATED ZONE =        -908356.06         SATURATED ZONE =          -7989.99

 OVERALL BUDGET ERROR =          -3217.59           BUDGET ERROR =             -5.86


  PERCENT DISCREPANCY =             -0.02    PERCENT DISCREPANCY =             -0.01



1
 SUMMARY VOLUMETRIC BUDGET FOR GSFLOW 
 DATE: 06 09 1981              CUMULATIVE TIME STEP:     252
 MODFLOW STRESS PERIOD      2     CURRENT TIME STEP:     252     ITERATIONS:      10

 -----------------------------------------------------------------------------------

   CUMULATIVE VOLUMES               L**3   RATES FOR THIS TIME STEP           L**3/T
   ------------------                      ------------------------

                                     IN                                         IN
                                     --                                         --
        PRECIPITATION =        1.8318D+07          PRECIPITATION =                  
           STREAMFLOW =                               STREAMFLOW =                  
     GW BOUNDARY FLOW =                         GW BOUNDARY FLOW =                  


                                    OUT                                        OUT
                                    ---                                        ---
   EVAPOTRANSPIRATION =        1.3016D+07     EVAPOTRANSPIRATION =          55519.60
           STREAMFLOW =        6298092.11             STREAMFLOW =           7204.22
     GW BOUNDARY FLOW =         183066.94       GW BOUNDARY FLOW =            722.29

   INFLOWS - OUTFLOWS =       -1179338.69     INFLOWS - OUTFLOWS =         -63446.11
             --------                                   --------

 TOTAL STORAGE CHANGE =       -1176083.12         STORAGE CHANGE =         -63440.77
       --------------                             --------------
         LAND SURFACE =          39669.52           LAND SURFACE =          -4382.74
            SOIL ZONE =         666945.81              SOIL ZONE =         -38548.29
     UNSATURATED ZONE =        -915345.90       UNSATURATED ZONE =         -11814.35
       SATURATED ZONE =        -967352.56         SATURATED ZONE =          -8695.40

 OVERALL BUDGET ERROR =          -3255.58           BUDGET ERROR =             -5.33


  PERCENT DISCREPANCY =             -0.02    PERCENT DISCREPANCY =             -0.01



1
 SUMMARY VOLUMETRIC BUDGET FOR GSFLOW 
 DATE: 06 16 1981              CUMULATIVE TIME STEP:     259
 MODFLOW STRESS PERIOD      2     CURRENT TIME STEP:     259     ITERATIONS:       9

 -----------------------------------------------------------------------------------

   CUMULATIVE VOLUMES               L**3   RATES FOR THIS TIME STEP           L**3/T
   ------------------                      ------------------------

                                     IN                                         IN
                                     --                                         --
        PRECIPITATION =        1.8318D+07          PRECIPITATION =                  
           STREAMFLOW =                               STREAMFLOW =                  
     GW BOUNDARY FLOW =                         GW BOUNDARY FLOW =                  


                                    OUT                                        OUT
                                    ---                                        ---
   EVAPOTRANSPIRATION =        1.3224D+07     EVAPOTRANSPIRATION =          47327.25
           STREAMFLOW =        6345718.83             STREAMFLOW =           6652.09
     GW BOUNDARY FLOW =         188121.62       GW BOUNDARY FLOW =            721.99

   INFLOWS - OUTFLOWS =       -1439921.07     INFLOWS - OUTFLOWS =         -54701.32
             --------                                   --------

 TOTAL STORAGE CHANGE =       -1436627.55         STORAGE CHANGE =         -54696.02
       --------------                             --------------
         LAND SURFACE =          25589.68           LAND SURFACE =          -3042.77
            SOIL ZONE =         570180.19              SOIL ZONE =         -29981.94
     UNSATURATED ZONE =       -1003475.35       UNSATURATED ZONE =         -12791.22
       SATURATED ZONE =       -1028922.06         SATURATED ZONE =          -8880.10

 OVERALL BUDGET ERROR =          -3293.52           BUDGET ERROR =             -5.31


  PERCENT DISCREPANCY =             -0.02    PERCENT DISCREPANCY =             -0.01



1
 SUMMARY VOLUMETRIC BUDGET FOR GSFLOW 
 DATE: 06 23 1981              CUMULATIVE TIME STEP:     266
 MODFLOW STRESS PERIOD      2     CURRENT TIME STEP:     266     ITERATIONS:      11

 -----------------------------------------------------------------------------------

   CUMULATIVE VOLUMES               L**3   RATES FOR THIS TIME STEP           L**3/T
   ------------------                      ------------------------

                                     IN                                         IN
                                     --                                         --
        PRECIPITATION =        1.8318D+07          PRECIPITATION =                  
           STREAMFLOW =                               STREAMFLOW =                  
     GW BOUNDARY FLOW =                         GW BOUNDARY FLOW =                  


                                    OUT                                        OUT
                                    ---                                        ---
   EVAPOTRANSPIRATION =        1.3566D+07     EVAPOTRANSPIRATION =          40146.16
           STREAMFLOW =        6390006.43             STREAMFLOW =           6084.06
     GW BOUNDARY FLOW =         193174.45       GW BOUNDARY FLOW =            721.70

   INFLOWS - OUTFLOWS =       -1830691.75     INFLOWS - OUTFLOWS =         -46951.92
             --------                                   --------

 TOTAL STORAGE CHANGE =       -1827358.89         STORAGE CHANGE =         -46946.25
       --------------                             --------------
         LAND SURFACE =           6959.28           LAND SURFACE =          -1578.51
            SOIL ZONE =         351042.58              SOIL ZONE =         -23590.22
     UNSATURATED ZONE =       -1090535.45       UNSATURATED ZONE =         -12143.44
       SATURATED ZONE =       -1094825.30         SATURATED ZONE =          -9634.08

 OVERALL BUDGET ERROR =          -3332.86           BUDGET ERROR =             -5.66


  PERCENT DISCREPANCY =             -0.02    PERCENT DISCREPANCY =             -0.01



1
 SUMMARY VOLUMETRIC BUDGET FOR GSFLOW 
 DATE: 06 30 1981              CUMULATIVE TIME STEP:     273
 MODFLOW STRESS PERIOD      2     CURRENT TIME STEP:     273     ITERATIONS:       9

 -----------------------------------------------------------------------------------

   CUMULATIVE VOLUMES               L**3   RATES FOR THIS TIME STEP           L**3/T
   ------------------                      ------------------------

                                     IN                                         IN
[...]
                                    ---                                        ---
   EVAPOTRANSPIRATION =        2.8408D+08     EVAPOTRANSPIRATION =          48716.53
           STREAMFLOW =        1.8392D+08             STREAMFLOW =           7399.59
     GW BOUNDARY FLOW =        4176923.15       GW BOUNDARY FLOW =            726.10

   INFLOWS - OUTFLOWS =       -7117114.49     INFLOWS - OUTFLOWS =         -56842.23
             --------                                   --------

 TOTAL STORAGE CHANGE =       -7099482.39         STORAGE CHANGE =         -56843.65
       --------------                             --------------
         LAND SURFACE =         214963.45           LAND SURFACE =         -10645.32
            SOIL ZONE =         328798.64              SOIL ZONE =         -24605.12
     UNSATURATED ZONE =        5290250.30       UNSATURATED ZONE =         -29180.66
       SATURATED ZONE =       -1.2933D+07         SATURATED ZONE =           7587.45

 OVERALL BUDGET ERROR =         -17632.10           BUDGET ERROR =              1.42


  PERCENT DISCREPANCY =             -0.00    PERCENT DISCREPANCY =              0.00



1
 SUMMARY VOLUMETRIC BUDGET FOR GSFLOW 
 DATE: 07 30 1996              CUMULATIVE TIME STEP:    5782
 MODFLOW STRESS PERIOD      2     CURRENT TIME STEP:    5782     ITERATIONS:      10

 -----------------------------------------------------------------------------------

   CUMULATIVE VOLUMES               L**3   RATES FOR THIS TIME STEP           L**3/T
   ------------------                      ------------------------

                                     IN                                         IN
                                     --                                         --
        PRECIPITATION =        4.6511D+08          PRECIPITATION =                  
           STREAMFLOW =                               STREAMFLOW =                  
     GW BOUNDARY FLOW =                         GW BOUNDARY FLOW =                  


                                    OUT                                        OUT
                                    ---                                        ---
   EVAPOTRANSPIRATION =        2.8439D+08     EVAPOTRANSPIRATION =          34605.80
           STREAMFLOW =        1.8397D+08             STREAMFLOW =           7089.05
     GW BOUNDARY FLOW =        4182003.73       GW BOUNDARY FLOW =            725.67

   INFLOWS - OUTFLOWS =       -7431096.74     INFLOWS - OUTFLOWS =         -42420.52
             --------                                   --------

 TOTAL STORAGE CHANGE =       -7413464.18         STORAGE CHANGE =         -42419.75
       --------------                             --------------
         LAND SURFACE =         152309.39           LAND SURFACE =          -7555.65
            SOIL ZONE =         229465.10              SOIL ZONE =         -13257.91
     UNSATURATED ZONE =        5091067.33       UNSATURATED ZONE =         -28080.76
       SATURATED ZONE =       -1.2886D+07         SATURATED ZONE =           6474.58

 OVERALL BUDGET ERROR =         -17632.55           BUDGET ERROR =             -0.77


  PERCENT DISCREPANCY =             -0.00    PERCENT DISCREPANCY =             -0.00



1
 SUMMARY VOLUMETRIC BUDGET FOR GSFLOW 
 DATE: 08 06 1996              CUMULATIVE TIME STEP:    5789
 MODFLOW STRESS PERIOD      2     CURRENT TIME STEP:    5789     ITERATIONS:      10

 -----------------------------------------------------------------------------------

   CUMULATIVE VOLUMES               L**3   RATES FOR THIS TIME STEP           L**3/T
   ------------------                      ------------------------

                                     IN                                         IN
                                     --                                         --
        PRECIPITATION =        4.6511D+08          PRECIPITATION =                  
           STREAMFLOW =                               STREAMFLOW =                  
     GW BOUNDARY FLOW =                         GW BOUNDARY FLOW =                  


                                    OUT                                        OUT
                                    ---                                        ---
   EVAPOTRANSPIRATION =        2.8457D+08     EVAPOTRANSPIRATION =          24658.11
           STREAMFLOW =        1.8402D+08             STREAMFLOW =           6801.23
     GW BOUNDARY FLOW =        4187082.63       GW BOUNDARY FLOW =            725.47

   INFLOWS - OUTFLOWS =       -7667262.49     INFLOWS - OUTFLOWS =         -32184.80
             --------                                   --------

 TOTAL STORAGE CHANGE =       -7649621.91         STORAGE CHANGE =         -32183.34
       --------------                             --------------
         LAND SURFACE =         111776.46           LAND SURFACE =          -5017.65
            SOIL ZONE =         183702.91              SOIL ZONE =          -5901.02
     UNSATURATED ZONE =        4900072.92       UNSATURATED ZONE =         -26504.42
       SATURATED ZONE =       -1.2845D+07         SATURATED ZONE =           5239.75

 OVERALL BUDGET ERROR =         -17640.58           BUDGET ERROR =             -1.46


  PERCENT DISCREPANCY =             -0.00    PERCENT DISCREPANCY =             -0.00



1
 SUMMARY VOLUMETRIC BUDGET FOR GSFLOW 
 DATE: 08 13 1996              CUMULATIVE TIME STEP:    5796
 MODFLOW STRESS PERIOD      2     CURRENT TIME STEP:    5796     ITERATIONS:      10

 -----------------------------------------------------------------------------------

   CUMULATIVE VOLUMES               L**3   RATES FOR THIS TIME STEP           L**3/T
   ------------------                      ------------------------

                                     IN                                         IN
                                     --                                         --
        PRECIPITATION =        4.6531D+08          PRECIPITATION =          54454.08
           STREAMFLOW =                               STREAMFLOW =                  
     GW BOUNDARY FLOW =                         GW BOUNDARY FLOW =                  


                                    OUT                                        OUT
                                    ---                                        ---
   EVAPOTRANSPIRATION =        2.8479D+08     EVAPOTRANSPIRATION =          37111.80
           STREAMFLOW =        1.8407D+08             STREAMFLOW =           7993.15
     GW BOUNDARY FLOW =        4192160.13       GW BOUNDARY FLOW =            725.36

   INFLOWS - OUTFLOWS =       -7735609.32     INFLOWS - OUTFLOWS =           8623.77
             --------                                   --------

 TOTAL STORAGE CHANGE =       -7717949.27         STORAGE CHANGE =           8625.44
       --------------                             --------------
         LAND SURFACE =         105220.94           LAND SURFACE =          -5194.35
            SOIL ZONE =         269182.53              SOIL ZONE =          34664.84
     UNSATURATED ZONE =        4718341.50       UNSATURATED ZONE =         -25457.48
       SATURATED ZONE =       -1.2811D+07         SATURATED ZONE =           4612.43

 OVERALL BUDGET ERROR =         -17660.06           BUDGET ERROR =             -1.67


  PERCENT DISCREPANCY =             -0.00    PERCENT DISCREPANCY =             -0.00



1
 SUMMARY VOLUMETRIC BUDGET FOR GSFLOW 
 DATE: 08 20 1996              CUMULATIVE TIME STEP:    5803
 MODFLOW STRESS PERIOD      2     CURRENT TIME STEP:    5803     ITERATIONS:      10

 -----------------------------------------------------------------------------------

   CUMULATIVE VOLUMES               L**3   RATES FOR THIS TIME STEP           L**3/T
   ------------------                      ------------------------

                                     IN                                         IN
                                     --                                         --
        PRECIPITATION =        4.6531D+08          PRECIPITATION =                  
           STREAMFLOW =                               STREAMFLOW =                  
     GW BOUNDARY FLOW =                         GW BOUNDARY FLOW =                  


                                    OUT                                        OUT
                                    ---                                        ---
   EVAPOTRANSPIRATION =        2.8501D+08     EVAPOTRANSPIRATION =          17960.71
           STREAMFLOW =        1.8412D+08             STREAMFLOW =           6545.48
     GW BOUNDARY FLOW =        4197235.55       GW BOUNDARY FLOW =            724.84

   INFLOWS - OUTFLOWS =       -8006922.18     INFLOWS - OUTFLOWS =         -25231.04
             --------                                   --------

 TOTAL STORAGE CHANGE =       -7989254.55         STORAGE CHANGE =         -25229.19
       --------------                             --------------
         LAND SURFACE =          44442.31           LAND SURFACE =          -2851.34
            SOIL ZONE =         204225.00              SOIL ZONE =          -1703.70
     UNSATURATED ZONE =        4546300.72       UNSATURATED ZONE =         -24132.12
       SATURATED ZONE =       -1.2784D+07         SATURATED ZONE =           3457.97

 OVERALL BUDGET ERROR =         -17667.63           BUDGET ERROR =             -1.85


  PERCENT DISCREPANCY =             -0.00    PERCENT DISCREPANCY =             -0.01



1
 SUMMARY VOLUMETRIC BUDGET FOR GSFLOW 
 DATE: 08 27 1996              CUMULATIVE TIME STEP:    5810
 MODFLOW STRESS PERIOD      2     CURRENT TIME STEP:    5810     ITERATIONS:       9

 -----------------------------------------------------------------------------------

   CUMULATIVE VOLUMES               L**3   RATES FOR THIS TIME STEP           L**3/T
   ------------------                      ------------------------

                                     IN                                         IN
                                     --                                         --
        PRECIPITATION =        4.6531D+08          PRECIPITATION =                  
           STREAMFLOW =                               STREAMFLOW =                  
     GW BOUNDARY FLOW =                         GW BOUNDARY FLOW =                  


                                    OUT                                        OUT
                                    ---                                        ---
   EVAPOTRANSPIRATION =        2.8517D+08     EVAPOTRANSPIRATION =          18478.42
           STREAMFLOW =        1.8416D+08             STREAMFLOW =           6375.56
     GW BOUNDARY FLOW =        4202307.58       GW BOUNDARY FLOW =            724.39

   INFLOWS - OUTFLOWS =       -8217993.31     INFLOWS - OUTFLOWS =         -25578.37
             --------                                   --------

 TOTAL STORAGE CHANGE =       -8200324.53         STORAGE CHANGE =         -25579.32
       --------------                             --------------
         LAND SURFACE =          21435.24           LAND SURFACE =          -2621.72
            SOIL ZONE =         159801.74              SOIL ZONE =          -2549.48
     UNSATURATED ZONE =        4382229.69       UNSATURATED ZONE =         -22961.69
       SATURATED ZONE =       -1.2764D+07         SATURATED ZONE =           2553.56

 OVERALL BUDGET ERROR =         -17668.78           BUDGET ERROR =              0.95


  PERCENT DISCREPANCY =             -0.00    PERCENT DISCREPANCY =              0.00



1
 SUMMARY VOLUMETRIC BUDGET FOR GSFLOW 
 DATE: 09 03 1996              CUMULATIVE TIME STEP:    5817
 MODFLOW STRESS PERIOD      2     CURRENT TIME STEP:    5817     ITERATIONS:       9

 -----------------------------------------------------------------------------------

   CUMULATIVE VOLUMES               L**3   RATES FOR THIS TIME STEP           L**3/T
   ------------------                      ------------------------

                                     IN                                         IN
                                     --                                         --
        PRECIPITATION =        4.6531D+08          PRECIPITATION =                  
           STREAMFLOW =                               STREAMFLOW =                  
     GW BOUNDARY FLOW =                         GW BOUNDARY FLOW =                  


                                    OUT                                        OUT
                                    ---                                        ---
   EVAPOTRANSPIRATION =        2.8528D+08     EVAPOTRANSPIRATION =          14237.82
           STREAMFLOW =        1.8421D+08             STREAMFLOW =           6257.95
     GW BOUNDARY FLOW =        4207376.40       GW BOUNDARY FLOW =            723.93

   INFLOWS - OUTFLOWS =       -8384635.62     INFLOWS - OUTFLOWS =         -21219.69
             --------                                   --------

 TOTAL STORAGE CHANGE =       -8366969.65         STORAGE CHANGE =         -21220.02
       --------------                             --------------
         LAND SURFACE =           7240.32           LAND SURFACE =          -1278.90
            SOIL ZONE =         149198.80              SOIL ZONE =            217.77
     UNSATURATED ZONE =        4225995.60       UNSATURATED ZONE =         -22125.12
       SATURATED ZONE =       -1.2749D+07         SATURATED ZONE =           1966.23

 OVERALL BUDGET ERROR =         -17665.97           BUDGET ERROR =              0.33


  PERCENT DISCREPANCY =             -0.00    PERCENT DISCREPANCY =              0.00



1
 SUMMARY VOLUMETRIC BUDGET FOR GSFLOW 
 DATE: 09 10 1996              CUMULATIVE TIME STEP:    5824
 MODFLOW STRESS PERIOD      2     CURRENT TIME STEP:    5824     ITERATIONS:       8

 -----------------------------------------------------------------------------------

   CUMULATIVE VOLUMES               L**3   RATES FOR THIS TIME STEP           L**3/T
   ------------------                      ------------------------

                                     IN                                         IN
                                     --                                         --
        PRECIPITATION =        4.6531D+08          PRECIPITATION =                  
           STREAMFLOW =                               STREAMFLOW =                  
     GW BOUNDARY FLOW =                         GW BOUNDARY FLOW =                  


                                    OUT                                        OUT
                                    ---                                        ---
   EVAPOTRANSPIRATION =        2.8538D+08     EVAPOTRANSPIRATION =          14097.35
           STREAMFLOW =        1.8425D+08             STREAMFLOW =           6148.44
     GW BOUNDARY FLOW =        4212442.13       GW BOUNDARY FLOW =            723.49

   INFLOWS - OUTFLOWS =       -8525195.67     INFLOWS - OUTFLOWS =         -20969.27
             --------                                   --------

 TOTAL STORAGE CHANGE =       -8507568.13         STORAGE CHANGE =         -20975.23
       --------------                             --------------
         LAND SURFACE =           2510.71           LAND SURFACE =           -704.62
            SOIL ZONE =         153534.30              SOIL ZONE =           -340.17
     UNSATURATED ZONE =        4074334.43       UNSATURATED ZONE =         -21396.55
       SATURATED ZONE =       -1.2738D+07         SATURATED ZONE =           1466.10

 OVERALL BUDGET ERROR =         -17627.55           BUDGET ERROR =              5.96


  PERCENT DISCREPANCY =             -0.00    PERCENT DISCREPANCY =              0.03



1
 SUMMARY VOLUMETRIC BUDGET FOR GSFLOW 
 DATE: 09 17 1996              CUMULATIVE TIME STEP:    5831
 MODFLOW STRESS PERIOD      2     CURRENT TIME STEP:    5831     ITERATIONS:       8

 -----------------------------------------------------------------------------------

   CUMULATIVE VOLUMES               L**3   RATES FOR THIS TIME STEP           L**3/T
   ------------------                      ------------------------

                                     IN                                         IN
                                     --                                         --
        PRECIPITATION =        4.6637D+08          PRECIPITATION =                  
           STREAMFLOW =                               STREAMFLOW =                  
     GW BOUNDARY FLOW =                         GW BOUNDARY FLOW =                  


                                    OUT                                        OUT
                                    ---                                        ---
   EVAPOTRANSPIRATION =        2.8555D+08     EVAPOTRANSPIRATION =          52774.70
           STREAMFLOW =        1.8432D+08             STREAMFLOW =          10279.09
     GW BOUNDARY FLOW =        4217507.48       GW BOUNDARY FLOW =            724.08

   INFLOWS - OUTFLOWS =       -7717824.06     INFLOWS - OUTFLOWS =         -63777.87
             --------                                   --------

 TOTAL STORAGE CHANGE =       -7700231.81         STORAGE CHANGE =         -63782.43
       --------------                             --------------
         LAND SURFACE =            882.14           LAND SURFACE =         -33826.70
            SOIL ZONE =        1099195.48              SOIL ZONE =         -10244.85
     UNSATURATED ZONE =        3929167.51       UNSATURATED ZONE =         -20344.72
       SATURATED ZONE =       -1.2729D+07         SATURATED ZONE =            633.83

 OVERALL BUDGET ERROR =         -17592.25           BUDGET ERROR =              4.56


  PERCENT DISCREPANCY =             -0.00    PERCENT DISCREPANCY =              0.01



1
 SUMMARY VOLUMETRIC BUDGET FOR GSFLOW 
 DATE: 09 24 1996              CUMULATIVE TIME STEP:    5838
 MODFLOW STRESS PERIOD      2     CURRENT TIME STEP:    5838     ITERATIONS:      13

 -----------------------------------------------------------------------------------

   CUMULATIVE VOLUMES               L**3   RATES FOR THIS TIME STEP           L**3/T
   ------------------                      ------------------------

                                     IN                                         IN
                                     --                                         --
        PRECIPITATION =        4.6637D+08          PRECIPITATION =                  
           STREAMFLOW =                               STREAMFLOW =                  
     GW BOUNDARY FLOW =                         GW BOUNDARY FLOW =                  


                                    OUT                                        OUT
                                    ---                                        ---
   EVAPOTRANSPIRATION =        2.8602D+08     EVAPOTRANSPIRATION =          54917.57
           STREAMFLOW =        1.8437D+08             STREAMFLOW =           6726.82
     GW BOUNDARY FLOW =        4222571.27       GW BOUNDARY FLOW =            723.01

   INFLOWS - OUTFLOWS =       -8249763.41     INFLOWS - OUTFLOWS =         -62367.40
             --------                                   --------

 TOTAL STORAGE CHANGE =       -8232179.03         STORAGE CHANGE =         -62361.83
       --------------                             --------------
         LAND SURFACE =                             LAND SURFACE =                  
            SOIL ZONE =         705287.92              SOIL ZONE =         -42859.81
     UNSATURATED ZONE =        3791588.57       UNSATURATED ZONE =         -19185.52
       SATURATED ZONE =       -1.2729D+07         SATURATED ZONE =           -316.50

 OVERALL BUDGET ERROR =         -17584.38           BUDGET ERROR =             -5.56


  PERCENT DISCREPANCY =             -0.00    PERCENT DISCREPANCY =             -0.01



