1
 SUMMARY VOLUMETRIC BUDGET FOR GSFLOW 
 DATE: 10 07 1980              CUMULATIVE TIME STEP:       7
 MODFLOW STRESS PERIOD      2     CURRENT TIME STEP:       7     ITERATIONS:       4

 -----------------------------------------------------------------------------------

   CUMULATIVE VOLUMES               L**3   RATES FOR THIS TIME STEP           L**3/T
   ------------------                      ------------------------

                                     IN                                         IN
                                     --                                         --
        PRECIPITATION =                            PRECIPITATION =                  
           STREAMFLOW =                               STREAMFLOW =                  
     GW BOUNDARY FLOW =                         GW BOUNDARY FLOW =                  


                                    OUT                                        OUT
                                    ---                                        ---
   EVAPOTRANSPIRATION =          63598.86     EVAPOTRANSPIRATION =           9287.66
           STREAMFLOW =          43081.79             STREAMFLOW =           6083.36
     GW BOUNDARY FLOW =           5067.91       GW BOUNDARY FLOW =            723.89

   INFLOWS - OUTFLOWS =        -111748.55     INFLOWS - OUTFLOWS =         -16094.91
             --------                                   --------

 TOTAL STORAGE CHANGE =        -111514.42         STORAGE CHANGE =         -16060.66
       --------------                             --------------
         LAND SURFACE =                             LAND SURFACE =                  
            SOIL ZONE =          46846.34              SOIL ZONE =           6398.93
     UNSATURATED ZONE =        -144965.30       UNSATURATED ZONE =         -20382.35
       SATURATED ZONE =         -13395.46         SATURATED ZONE =          -2077.23

 OVERALL BUDGET ERROR =           -234.13           BUDGET ERROR =            -34.25


  PERCENT DISCREPANCY =             -0.21    PERCENT DISCREPANCY =             -0.21



1
 SUMMARY VOLUMETRIC BUDGET FOR GSFLOW 
 DATE: 10 14 1980              CUMULATIVE TIME STEP:      14
 MODFLOW STRESS PERIOD      2     CURRENT TIME STEP:      14     ITERATIONS:       4

 -----------------------------------------------------------------------------------

   CUMULATIVE VOLUMES               L**3   RATES FOR THIS TIME STEP           L**3/T
   ------------------                      ------------------------

                                     IN                                         IN
                                     --                                         --
        PRECIPITATION =         650779.83          PRECIPITATION =         164754.40
           STREAMFLOW =                               STREAMFLOW =                  
     GW BOUNDARY FLOW =                         GW BOUNDARY FLOW =                  


                                    OUT                                        OUT
                                    ---                                        ---
   EVAPOTRANSPIRATION =         159093.84     EVAPOTRANSPIRATION =          10553.69
           STREAMFLOW =          94488.71             STREAMFLOW =           7705.06
     GW BOUNDARY FLOW =          10135.83       GW BOUNDARY FLOW =            724.16

   INFLOWS - OUTFLOWS =         387061.45     INFLOWS - OUTFLOWS =         145771.47
             --------                                   --------

 TOTAL STORAGE CHANGE =         387529.65         STORAGE CHANGE =         145806.68
       --------------                             --------------
         LAND SURFACE =         183750.31           LAND SURFACE =         130549.56
            SOIL ZONE =         517188.21              SOIL ZONE =          37359.33
     UNSATURATED ZONE =        -284675.80       UNSATURATED ZONE =         -19601.71
       SATURATED ZONE =         -28733.06         SATURATED ZONE =          -2500.50

 OVERALL BUDGET ERROR =           -468.20           BUDGET ERROR =            -35.20


  PERCENT DISCREPANCY =             -0.07    PERCENT DISCREPANCY =             -0.02



1
 SUMMARY VOLUMETRIC BUDGET FOR GSFLOW 
 DATE: 10 21 1980              CUMULATIVE TIME STEP:      21
 MODFLOW STRESS PERIOD      2     CURRENT TIME STEP:      21     ITERATIONS:       5

 -----------------------------------------------------------------------------------

   CUMULATIVE VOLUMES               L**3   RATES FOR THIS TIME STEP           L**3/T
   ------------------                      ------------------------

                                     IN                                         IN
                                     --                                         --
        PRECIPITATION =         733157.03          PRECIPITATION =                  
           STREAMFLOW =                               STREAMFLOW =                  
     GW BOUNDARY FLOW =                         GW BOUNDARY FLOW =                  


                                    OUT                                        OUT
                                    ---                                        ---
   EVAPOTRANSPIRATION =         373913.50     EVAPOTRANSPIRATION =          30466.79
           STREAMFLOW =         145892.08             STREAMFLOW =           6945.20
     GW BOUNDARY FLOW =          15204.01       GW BOUNDARY FLOW =            723.92

   INFLOWS - OUTFLOWS =         198147.44     INFLOWS - OUTFLOWS =         -38135.90
             --------                                   --------

 TOTAL STORAGE CHANGE =         198835.86         STORAGE CHANGE =         -38105.67
       --------------                             --------------
         LAND SURFACE =                             LAND SURFACE =                  
            SOIL ZONE =         665999.12              SOIL ZONE =         -16142.50
     UNSATURATED ZONE =        -418563.88       UNSATURATED ZONE =         -18774.38
       SATURATED ZONE =         -48599.39         SATURATED ZONE =          -3188.79

 OVERALL BUDGET ERROR =           -688.42           BUDGET ERROR =            -30.24


  PERCENT DISCREPANCY =             -0.09    PERCENT DISCREPANCY =             -0.08



1
 SUMMARY VOLUMETRIC BUDGET FOR GSFLOW 
 DATE: 10 28 1980              CUMULATIVE TIME STEP:      28
 MODFLOW STRESS PERIOD      2     CURRENT TIME STEP:      28     ITERATIONS:       5

 -----------------------------------------------------------------------------------

   CUMULATIVE VOLUMES               L**3   RATES FOR THIS TIME STEP           L**3/T
   ------------------                      ------------------------

                                     IN                                         IN
                                     --                                         --
        PRECIPITATION =        1070903.53          PRECIPITATION =                  
           STREAMFLOW =                               STREAMFLOW =                  
     GW BOUNDARY FLOW =                         GW BOUNDARY FLOW =                  


                                    OUT                                        OUT
                                    ---                                        ---
   EVAPOTRANSPIRATION =         545872.48     EVAPOTRANSPIRATION =          24800.27
           STREAMFLOW =         200718.19             STREAMFLOW =           8034.10
     GW BOUNDARY FLOW =          20271.63       GW BOUNDARY FLOW =            724.02

   INFLOWS - OUTFLOWS =         304041.22     INFLOWS - OUTFLOWS =         -33558.39
             --------                                   --------

 TOTAL STORAGE CHANGE =         304936.81         STORAGE CHANGE =         -33528.56
       --------------                             --------------
         LAND SURFACE =          20571.53           LAND SURFACE =         -29890.85
            SOIL ZONE =         903396.99              SOIL ZONE =          17948.11
     UNSATURATED ZONE =        -546609.06       UNSATURATED ZONE =         -17920.67
       SATURATED ZONE =         -72422.64         SATURATED ZONE =          -3665.14

 OVERALL BUDGET ERROR =           -895.59           BUDGET ERROR =            -29.83


  PERCENT DISCREPANCY =             -0.08    PERCENT DISCREPANCY =             -0.09



1
 SUMMARY VOLUMETRIC BUDGET FOR GSFLOW 
 DATE: 11 04 1980              CUMULATIVE TIME STEP:      35
 MODFLOW STRESS PERIOD      2     CURRENT TIME STEP:      35     ITERATIONS:       6

 -----------------------------------------------------------------------------------

   CUMULATIVE VOLUMES               L**3   RATES FOR THIS TIME STEP           L**3/T
   ------------------                      ------------------------

                                     IN                                         IN
                                     --                                         --
        PRECIPITATION =        1070903.53          PRECIPITATION =                  
           STREAMFLOW =                               STREAMFLOW =                  
     GW BOUNDARY FLOW =                         GW BOUNDARY FLOW =                  


                                    OUT                                        OUT
                                    ---                                        ---
   EVAPOTRANSPIRATION =         813280.22     EVAPOTRANSPIRATION =          35643.65
           STREAMFLOW =         253836.57             STREAMFLOW =           7129.17
     GW BOUNDARY FLOW =          25339.00       GW BOUNDARY FLOW =            723.82

   INFLOWS - OUTFLOWS =         -21552.26     INFLOWS - OUTFLOWS =         -43496.65
             --------                                   --------

 TOTAL STORAGE CHANGE =         -20456.50         STORAGE CHANGE =         -43470.24
       --------------                             --------------
         LAND SURFACE =                             LAND SURFACE =                  
            SOIL ZONE =         749828.04              SOIL ZONE =         -21854.34
     UNSATURATED ZONE =        -669492.53       UNSATURATED ZONE =         -17301.54
       SATURATED ZONE =        -100792.01         SATURATED ZONE =          -4314.37

 OVERALL BUDGET ERROR =          -1095.76           BUDGET ERROR =            -26.40


  PERCENT DISCREPANCY =             -0.10    PERCENT DISCREPANCY =             -0.06



1
 SUMMARY VOLUMETRIC BUDGET FOR GSFLOW 
 DATE: 11 11 1980              CUMULATIVE TIME STEP:      42
 MODFLOW STRESS PERIOD      2     CURRENT TIME STEP:      42     ITERATIONS:       5

 -----------------------------------------------------------------------------------

   CUMULATIVE VOLUMES               L**3   RATES FOR THIS TIME STEP           L**3/T
   ------------------                      ------------------------

                                     IN                                         IN
                                     --                                         --
        PRECIPITATION =        1573762.54          PRECIPITATION =         255182.19
           STREAMFLOW =                               STREAMFLOW =                  
     GW BOUNDARY FLOW =                         GW BOUNDARY FLOW =                  


                                    OUT                                        OUT
                                    ---                                        ---
   EVAPOTRANSPIRATION =         997177.15     EVAPOTRANSPIRATION =          15468.94
           STREAMFLOW =         310919.02             STREAMFLOW =          10924.44
     GW BOUNDARY FLOW =          30406.11       GW BOUNDARY FLOW =            724.10

   INFLOWS - OUTFLOWS =         235260.26     INFLOWS - OUTFLOWS =         228064.71
             --------                                   --------

 TOTAL STORAGE CHANGE =         236557.26         STORAGE CHANGE =         228093.00
       --------------                             --------------
         LAND SURFACE =          76960.22           LAND SURFACE =          76747.38
            SOIL ZONE =        1078678.34              SOIL ZONE =         171892.15
     UNSATURATED ZONE =        -787508.43       UNSATURATED ZONE =         -16457.67
       SATURATED ZONE =        -131572.88         SATURATED ZONE =          -4088.86

 OVERALL BUDGET ERROR =          -1296.99           BUDGET ERROR =            -28.29


  PERCENT DISCREPANCY =             -0.08    PERCENT DISCREPANCY =             -0.01



1
 SUMMARY VOLUMETRIC BUDGET FOR GSFLOW 
 DATE: 11 18 1980              CUMULATIVE TIME STEP:      49
 MODFLOW STRESS PERIOD      2     CURRENT TIME STEP:      49     ITERATIONS:       5

 -----------------------------------------------------------------------------------

   CUMULATIVE VOLUMES               L**3   RATES FOR THIS TIME STEP           L**3/T
   ------------------                      ------------------------

                                     IN                                         IN
                                     --                                         --
        PRECIPITATION =        1573762.54          PRECIPITATION =                  
           STREAMFLOW =                               STREAMFLOW =                  
     GW BOUNDARY FLOW =                         GW BOUNDARY FLOW =                  


                                    OUT                                        OUT
                                    ---                                        ---
   EVAPOTRANSPIRATION =        1086210.51     EVAPOTRANSPIRATION =          15000.67
           STREAMFLOW =         375002.59             STREAMFLOW =           9472.20
     GW BOUNDARY FLOW =          35474.81       GW BOUNDARY FLOW =            724.13

   INFLOWS - OUTFLOWS =          77074.63     INFLOWS - OUTFLOWS =         -25197.01
             --------                                   --------

 TOTAL STORAGE CHANGE =          78566.91         STORAGE CHANGE =         -25169.42
       --------------                             --------------
         LAND SURFACE =           8139.47           LAND SURFACE =          -4965.50
            SOIL ZONE =        1136494.24              SOIL ZONE =            728.13
     UNSATURATED ZONE =        -900850.30       UNSATURATED ZONE =         -15952.82
       SATURATED ZONE =        -165216.49         SATURATED ZONE =          -4979.21

 OVERALL BUDGET ERROR =          -1492.28           BUDGET ERROR =            -27.59


  PERCENT DISCREPANCY =             -0.09    PERCENT DISCREPANCY =             -0.11



1
 SUMMARY VOLUMETRIC BUDGET FOR GSFLOW 
 DATE: 11 25 1980              CUMULATIVE TIME STEP:      56
 MODFLOW STRESS PERIOD      2     CURRENT TIME STEP:      56     ITERATIONS:       6

 -----------------------------------------------------------------------------------

   CUMULATIVE VOLUMES               L**3   RATES FOR THIS TIME STEP           L**3/T
   ------------------                      ------------------------

                                     IN                                         IN
                                     --                                         --
        PRECIPITATION =        1648816.13          PRECIPITATION =                  
           STREAMFLOW =                               STREAMFLOW =                  
     GW BOUNDARY FLOW =                         GW BOUNDARY FLOW =                  


                                    OUT                                        OUT
                                    ---                                        ---
   EVAPOTRANSPIRATION =        1160906.70     EVAPOTRANSPIRATION =           9313.15
           STREAMFLOW =         443344.08             STREAMFLOW =          10138.34
     GW BOUNDARY FLOW =          40544.06       GW BOUNDARY FLOW =            724.23

   INFLOWS - OUTFLOWS =           4021.29     INFLOWS - OUTFLOWS =         -20175.72
             --------                                   --------

 TOTAL STORAGE CHANGE =           5693.06         STORAGE CHANGE =         -20152.92
       --------------                             --------------
         LAND SURFACE =          54136.41           LAND SURFACE =          -9258.02
            SOIL ZONE =        1163752.67              SOIL ZONE =           9903.60
     UNSATURATED ZONE =       -1010092.41       UNSATURATED ZONE =         -15341.52
       SATURATED ZONE =        -202103.61         SATURATED ZONE =          -5456.98

 OVERALL BUDGET ERROR =          -1671.77           BUDGET ERROR =            -22.80


  PERCENT DISCREPANCY =             -0.10    PERCENT DISCREPANCY =             -0.11



1
 SUMMARY VOLUMETRIC BUDGET FOR GSFLOW 
 DATE: 12 02 1980              CUMULATIVE TIME STEP:      63
 MODFLOW STRESS PERIOD      2     CURRENT TIME STEP:      63     ITERATIONS:       5

 -----------------------------------------------------------------------------------

   CUMULATIVE VOLUMES               L**3   RATES FOR THIS TIME STEP           L**3/T
   ------------------                      ------------------------

                                     IN                                         IN
                                     --                                         --
        PRECIPITATION =        2076621.55          PRECIPITATION =                  
           STREAMFLOW =                               STREAMFLOW =                  
     GW BOUNDARY FLOW =                         GW BOUNDARY FLOW =                  


                                    OUT                                        OUT
                                    ---                                        ---
   EVAPOTRANSPIRATION =        1344691.22     EVAPOTRANSPIRATION =          33726.37
           STREAMFLOW =         529721.72             STREAMFLOW =          15618.36
     GW BOUNDARY FLOW =          45615.46       GW BOUNDARY FLOW =            724.89

   INFLOWS - OUTFLOWS =         156593.16     INFLOWS - OUTFLOWS =         -50069.62
             --------                                   --------

 TOTAL STORAGE CHANGE =         158448.46         STORAGE CHANGE =         -50042.55
       --------------                             --------------
         LAND SURFACE =         157031.21           LAND SURFACE =         -76789.76
            SOIL ZONE =        1351181.28              SOIL ZONE =          44121.05
     UNSATURATED ZONE =       -1110909.91       UNSATURATED ZONE =         -12687.40
       SATURATED ZONE =        -238854.11         SATURATED ZONE =          -4686.44

 OVERALL BUDGET ERROR =          -1855.31           BUDGET ERROR =            -27.07


  PERCENT DISCREPANCY =             -0.09    PERCENT DISCREPANCY =             -0.05



1
 SUMMARY VOLUMETRIC BUDGET FOR GSFLOW 
 DATE: 12 09 1980              CUMULATIVE TIME STEP:      70
 MODFLOW STRESS PERIOD      2     CURRENT TIME STEP:      70     ITERATIONS:       5

 -----------------------------------------------------------------------------------

   CUMULATIVE VOLUMES               L**3   RATES FOR THIS TIME STEP           L**3/T
   ------------------                      ------------------------

                                     IN                                         IN
                                     --                                         --
        PRECIPITATION =        4284363.63          PRECIPITATION =                  
           STREAMFLOW =                               STREAMFLOW =                  
     GW BOUNDARY FLOW =                         GW BOUNDARY FLOW =                  


                                    OUT                                        OUT
                                    ---                                        ---
   EVAPOTRANSPIRATION =        1370329.99     EVAPOTRANSPIRATION =           3258.35
           STREAMFLOW =         631271.17             STREAMFLOW =          14794.30
     GW BOUNDARY FLOW =          50690.49       GW BOUNDARY FLOW =            725.10

   INFLOWS - OUTFLOWS =        2232071.97     INFLOWS - OUTFLOWS =         -18777.75
             --------                                   --------

 TOTAL STORAGE CHANGE =        2234106.86         STORAGE CHANGE =         -18751.61
       --------------                             --------------
         LAND SURFACE =        2337504.39           LAND SURFACE =          -3258.35
            SOIL ZONE =        1383866.08              SOIL ZONE =           4723.15
     UNSATURATED ZONE =       -1208201.06       UNSATURATED ZONE =         -14151.39
       SATURATED ZONE =        -279062.55         SATURATED ZONE =          -6065.01

 OVERALL BUDGET ERROR =          -2034.89           BUDGET ERROR =            -26.15


  PERCENT DISCREPANCY =             -0.05    PERCENT DISCREPANCY =             -0.14



1
 SUMMARY VOLUMETRIC BUDGET FOR GSFLOW 
 DATE: 12 16 1980              CUMULATIVE TIME STEP:      77
 MODFLOW STRESS PERIOD      2     CURRENT TIME STEP:      77     ITERATIONS:       5

 -----------------------------------------------------------------------------------

   CUMULATIVE VOLUMES               L**3   RATES FOR THIS TIME STEP           L**3/T
   ------------------                      ------------------------

                                     IN                                         IN
                                     --                                         --
        PRECIPITATION =        4284363.63          PRECIPITATION =                  
           STREAMFLOW =                               STREAMFLOW =                  
     GW BOUNDARY FLOW =                         GW BOUNDARY FLOW =                  


                                    OUT                                        OUT
                                    ---                                        ---
   EVAPOTRANSPIRATION =        1514953.86     EVAPOTRANSPIRATION =          34474.94
           STREAMFLOW =         754155.87             STREAMFLOW =          25556.27
     GW BOUNDARY FLOW =          55768.10       GW BOUNDARY FLOW =            725.98

   INFLOWS - OUTFLOWS =        1959485.81     INFLOWS - OUTFLOWS =         -60757.18
             --------                                   --------

 TOTAL STORAGE CHANGE =        1961686.32         STORAGE CHANGE =         -60730.34
       --------------                             --------------
         LAND SURFACE =        2017009.26           LAND SURFACE =        -133032.45
            SOIL ZONE =        1561574.84              SOIL ZONE =          85385.67
     UNSATURATED ZONE =       -1296959.80       UNSATURATED ZONE =          -8623.22
       SATURATED ZONE =        -319937.98         SATURATED ZONE =          -4460.34

 OVERALL BUDGET ERROR =          -2200.51           BUDGET ERROR =            -26.84


  PERCENT DISCREPANCY =             -0.05    PERCENT DISCREPANCY =             -0.04



1
 SUMMARY VOLUMETRIC BUDGET FOR GSFLOW 
 DATE: 12 23 1980              CUMULATIVE TIME STEP:      84
 MODFLOW STRESS PERIOD      2     CURRENT TIME STEP:      84     ITERATIONS:       6

 -----------------------------------------------------------------------------------

   CUMULATIVE VOLUMES               L**3   RATES FOR THIS TIME STEP           L**3/T
   ------------------                      ------------------------

                                     IN                                         IN
                                     --                                         --
        PRECIPITATION =        4516757.54          PRECIPITATION =                  
           STREAMFLOW =                               STREAMFLOW =                  
     GW BOUNDARY FLOW =                         GW BOUNDARY FLOW =                  


                                    OUT                                        OUT
                                    ---                                        ---
   EVAPOTRANSPIRATION =        1723179.55     EVAPOTRANSPIRATION =          35848.50
           STREAMFLOW =         988177.65             STREAMFLOW =          31360.75
     GW BOUNDARY FLOW =          60861.04       GW BOUNDARY FLOW =            728.20

   INFLOWS - OUTFLOWS =        1744539.29     INFLOWS - OUTFLOWS =         -67937.45
             --------                                   --------

 TOTAL STORAGE CHANGE =        1746888.41         STORAGE CHANGE =         -67920.03
       --------------                             --------------
         LAND SURFACE =        1391476.44           LAND SURFACE =         -50626.27
            SOIL ZONE =        2034450.93              SOIL ZONE =          -8599.76
     UNSATURATED ZONE =       -1331318.07       UNSATURATED ZONE =          -4200.37
       SATURATED ZONE =        -347720.90         SATURATED ZONE =          -4493.63

 OVERALL BUDGET ERROR =          -2349.11           BUDGET ERROR =            -17.41


  PERCENT DISCREPANCY =             -0.05    PERCENT DISCREPANCY =             -0.03



1
 SUMMARY VOLUMETRIC BUDGET FOR GSFLOW 
 DATE: 12 30 1980              CUMULATIVE TIME STEP:      91
 MODFLOW STRESS PERIOD      2     CURRENT TIME STEP:      91     ITERATIONS:       7

 -----------------------------------------------------------------------------------

   CUMULATIVE VOLUMES               L**3   RATES FOR THIS TIME STEP           L**3/T
   ------------------                      ------------------------

                                     IN                                         IN
                                     --                                         --
        PRECIPITATION =        4516757.54          PRECIPITATION =                  
           STREAMFLOW =                               STREAMFLOW =                  
     GW BOUNDARY FLOW =                         GW BOUNDARY FLOW =                  


                                    OUT                                        OUT
                                    ---                                        ---
   EVAPOTRANSPIRATION =        2090901.81     EVAPOTRANSPIRATION =          47015.27
           STREAMFLOW =        1241893.05             STREAMFLOW =          28049.31
     GW BOUNDARY FLOW =          65962.84       GW BOUNDARY FLOW =            728.73

   INFLOWS - OUTFLOWS =        1117999.84     INFLOWS - OUTFLOWS =         -75793.31
             --------                                   --------

 TOTAL STORAGE CHANGE =        1120444.89         STORAGE CHANGE =         -75782.11
       --------------                             --------------
         LAND SURFACE =         579625.22           LAND SURFACE =         -42433.18
            SOIL ZONE =        2238399.79              SOIL ZONE =         -25955.41
     UNSATURATED ZONE =       -1328460.33       UNSATURATED ZONE =          -3628.68
       SATURATED ZONE =        -369119.79         SATURATED ZONE =          -3764.84

 OVERALL BUDGET ERROR =          -2445.04           BUDGET ERROR =            -11.19


  PERCENT DISCREPANCY =             -0.05    PERCENT DISCREPANCY =             -0.01



1
 SUMMARY VOLUMETRIC BUDGET FOR GSFLOW 
 DATE: 01 06 1981              CUMULATIVE TIME STEP:      98
 MODFLOW STRESS PERIOD      2     CURRENT TIME STEP:      98     ITERATIONS:       6

 -----------------------------------------------------------------------------------

   CUMULATIVE VOLUMES               L**3   RATES FOR THIS TIME STEP           L**3/T
   ------------------                      ------------------------

                                     IN                                         IN
                                     --                                         --
        PRECIPITATION =        5004445.43          PRECIPITATION =                  
           STREAMFLOW =                               STREAMFLOW =                  
     GW BOUNDARY FLOW =                         GW BOUNDARY FLOW =                  


                                    OUT                                        OUT
                                    ---                                        ---
   EVAPOTRANSPIRATION =        2308588.97     EVAPOTRANSPIRATION =          18975.60
           STREAMFLOW =        1392051.68             STREAMFLOW =          20247.01
     GW BOUNDARY FLOW =          71056.24       GW BOUNDARY FLOW =            727.01

   INFLOWS - OUTFLOWS =        1232748.54     INFLOWS - OUTFLOWS =         -39949.63
             --------                                   --------

 TOTAL STORAGE CHANGE =        1235280.29         STORAGE CHANGE =         -39936.07
       --------------                             --------------
         LAND SURFACE =         840075.41           LAND SURFACE =         -25549.73
            SOIL ZONE =        2199970.57              SOIL ZONE =           3111.19
     UNSATURATED ZONE =       -1397322.32       UNSATURATED ZONE =         -11380.67
       SATURATED ZONE =        -407443.37         SATURATED ZONE =          -6116.86

 OVERALL BUDGET ERROR =          -2531.76           BUDGET ERROR =            -13.56


  PERCENT DISCREPANCY =             -0.05    PERCENT DISCREPANCY =             -0.03



1
 SUMMARY VOLUMETRIC BUDGET FOR GSFLOW 
 DATE: 01 13 1981              CUMULATIVE TIME STEP:     105
 MODFLOW STRESS PERIOD      2     CURRENT TIME STEP:     105     ITERATIONS:       5

 -----------------------------------------------------------------------------------

   CUMULATIVE VOLUMES               L**3   RATES FOR THIS TIME STEP           L**3/T
   ------------------                      ------------------------

                                     IN                                         IN
                                     --                                         --
        PRECIPITATION =        5004445.43          PRECIPITATION =                  
           STREAMFLOW =                               STREAMFLOW =                  
     GW BOUNDARY FLOW =                         GW BOUNDARY FLOW =                  


                                    OUT                                        OUT
                                    ---                                        ---
   EVAPOTRANSPIRATION =        2510332.60     EVAPOTRANSPIRATION =          41906.73
           STREAMFLOW =        1537638.78             STREAMFLOW =          20320.71
     GW BOUNDARY FLOW =          76143.47       GW BOUNDARY FLOW =            726.57

   INFLOWS - OUTFLOWS =         880330.59     INFLOWS - OUTFLOWS =         -62954.01
             --------                                   --------

 TOTAL STORAGE CHANGE =         882976.25         STORAGE CHANGE =         -62934.21
       --------------                             --------------
         LAND SURFACE =         624161.65           LAND SURFACE =         -38673.92
            SOIL ZONE =        2177451.79              SOIL ZONE =          -8508.80
     UNSATURATED ZONE =       -1466628.76       UNSATURATED ZONE =          -9188.85
       SATURATED ZONE =        -452008.43         SATURATED ZONE =          -6562.64

 OVERALL BUDGET ERROR =          -2645.67           BUDGET ERROR =            -19.80


  PERCENT DISCREPANCY =             -0.05    PERCENT DISCREPANCY =             -0.03



1
 SUMMARY VOLUMETRIC BUDGET FOR GSFLOW 
 DATE: 01 20 1981              CUMULATIVE TIME STEP:     112
 MODFLOW STRESS PERIOD      2     CURRENT TIME STEP:     112     ITERATIONS:       6

 -----------------------------------------------------------------------------------

   CUMULATIVE VOLUMES               L**3   RATES FOR THIS TIME STEP           L**3/T
   ------------------                      ------------------------

                                     IN                                         IN
                                     --                                         --
        PRECIPITATION =        5170466.84          PRECIPITATION =          41505.35
           STREAMFLOW =                               STREAMFLOW =                  
     GW BOUNDARY FLOW =                         GW BOUNDARY FLOW =                  


                                    OUT                                        OUT
                                    ---                                        ---
   EVAPOTRANSPIRATION =        2774975.16     EVAPOTRANSPIRATION =          31077.26
           STREAMFLOW =        1680353.35             STREAMFLOW =          20055.70
     GW BOUNDARY FLOW =          81228.65       GW BOUNDARY FLOW =            726.38

   INFLOWS - OUTFLOWS =         633909.69     INFLOWS - OUTFLOWS =         -10353.98
             --------                                   --------

 TOTAL STORAGE CHANGE =         636662.43         STORAGE CHANGE =         -10340.50
       --------------                             --------------
         LAND SURFACE =         464145.89           LAND SURFACE =           8501.89
            SOIL ZONE =        2170758.18              SOIL ZONE =          -9621.50
     UNSATURATED ZONE =       -1499517.06       UNSATURATED ZONE =          -2384.24
       SATURATED ZONE =        -498724.59         SATURATED ZONE =          -6836.65

 OVERALL BUDGET ERROR =          -2752.74           BUDGET ERROR =            -13.48


  PERCENT DISCREPANCY =             -0.05    PERCENT DISCREPANCY =             -0.03



1
 SUMMARY VOLUMETRIC BUDGET FOR GSFLOW 
 DATE: 01 27 1981              CUMULATIVE TIME STEP:     119
 MODFLOW STRESS PERIOD      2     CURRENT TIME STEP:     119     ITERATIONS:       5

 -----------------------------------------------------------------------------------

   CUMULATIVE VOLUMES               L**3   RATES FOR THIS TIME STEP           L**3/T
   ------------------                      ------------------------

                                     IN                                         IN
                                     --                                         --
        PRECIPITATION =        8646540.08          PRECIPITATION =        2936503.63
           STREAMFLOW =                               STREAMFLOW =                  
     GW BOUNDARY FLOW =                         GW BOUNDARY FLOW =                  


                                    OUT                                        OUT
                                    ---                                        ---
   EVAPOTRANSPIRATION =        2997597.33     EVAPOTRANSPIRATION =          12639.57
           STREAMFLOW =        1824171.97             STREAMFLOW =          18569.66
     GW BOUNDARY FLOW =          86312.88       GW BOUNDARY FLOW =            726.08

   INFLOWS - OUTFLOWS =        3738457.89     INFLOWS - OUTFLOWS =        2904568.32
             --------                                   --------

 TOTAL STORAGE CHANGE =        3741291.73         STORAGE CHANGE =        2904584.63
       --------------                             --------------
         LAND SURFACE =        3592460.11           LAND SURFACE =        2923864.12
            SOIL ZONE =        2190835.06              SOIL ZONE =          -6079.93
     UNSATURATED ZONE =       -1496304.99       UNSATURATED ZONE =          -6071.21
       SATURATED ZONE =        -545698.44         SATURATED ZONE =          -7128.36

 OVERALL BUDGET ERROR =          -2833.84           BUDGET ERROR =            -16.31


  PERCENT DISCREPANCY =             -0.03    PERCENT DISCREPANCY =             -0.00



1
 SUMMARY VOLUMETRIC BUDGET FOR GSFLOW 
 DATE: 02 03 1981              CUMULATIVE TIME STEP:     126
 MODFLOW STRESS PERIOD      2     CURRENT TIME STEP:     126     ITERATIONS:       6

 -----------------------------------------------------------------------------------

   CUMULATIVE VOLUMES               L**3   RATES FOR THIS TIME STEP           L**3/T
   ------------------                      ------------------------

                                     IN                                         IN
                                     --                                         --
        PRECIPITATION =        1.1739D+07          PRECIPITATION =                  
           STREAMFLOW =                               STREAMFLOW =                  
     GW BOUNDARY FLOW =                         GW BOUNDARY FLOW =                  


                                    OUT                                        OUT
                                    ---                                        ---
   EVAPOTRANSPIRATION =        3032788.70     EVAPOTRANSPIRATION =           7106.06
           STREAMFLOW =        1950854.73             STREAMFLOW =          18000.82
     GW BOUNDARY FLOW =          91394.28       GW BOUNDARY FLOW =            725.85

   INFLOWS - OUTFLOWS =        6663651.06     INFLOWS - OUTFLOWS =         -25832.74
             --------                                   --------

 TOTAL STORAGE CHANGE =        6666563.66         STORAGE CHANGE =         -25821.47
       --------------                             --------------
         LAND SURFACE =        6649417.45           LAND SURFACE =          -7106.06
            SOIL ZONE =        2183061.20              SOIL ZONE =            514.01
     UNSATURATED ZONE =       -1566974.54       UNSATURATED ZONE =         -11268.65
       SATURATED ZONE =        -598940.45         SATURATED ZONE =          -7960.77

 OVERALL BUDGET ERROR =          -2912.60           BUDGET ERROR =            -11.27


  PERCENT DISCREPANCY =             -0.02    PERCENT DISCREPANCY =             -0.04



1
 SUMMARY VOLUMETRIC BUDGET FOR GSFLOW 
 DATE: 02 10 1981              CUMULATIVE TIME STEP:     133
 MODFLOW STRESS PERIOD      2     CURRENT TIME STEP:     133     ITERATIONS:       5

 -----------------------------------------------------------------------------------

   CUMULATIVE VOLUMES               L**3   RATES FOR THIS TIME STEP           L**3/T
   ------------------                      ------------------------

                                     IN                                         IN
                                     --                                         --
        PRECIPITATION =        1.1838D+07          PRECIPITATION =                  
           STREAMFLOW =                               STREAMFLOW =                  
     GW BOUNDARY FLOW =                         GW BOUNDARY FLOW =                  


                                    OUT                                        OUT
                                    ---                                        ---
   EVAPOTRANSPIRATION =        3153892.21     EVAPOTRANSPIRATION =          32343.27
           STREAMFLOW =        2077023.10             STREAMFLOW =          18042.79
     GW BOUNDARY FLOW =          96475.26       GW BOUNDARY FLOW =            725.85

   INFLOWS - OUTFLOWS =        6510862.71     INFLOWS - OUTFLOWS =         -51111.91
             --------                                   --------

 TOTAL STORAGE CHANGE =        6513882.88         STORAGE CHANGE =         -51093.42
       --------------                             --------------
         LAND SURFACE =        6627878.44           LAND SURFACE =         -32343.27
            SOIL ZONE =        2187267.34              SOIL ZONE =            543.26
     UNSATURATED ZONE =       -1643241.47       UNSATURATED ZONE =         -10578.54
       SATURATED ZONE =        -658021.43         SATURATED ZONE =          -8714.87

 OVERALL BUDGET ERROR =          -3020.17           BUDGET ERROR =            -18.49


  PERCENT DISCREPANCY =             -0.03    PERCENT DISCREPANCY =             -0.04



1
 SUMMARY VOLUMETRIC BUDGET FOR GSFLOW 
 DATE: 02 17 1981              CUMULATIVE TIME STEP:     140
 MODFLOW STRESS PERIOD      2     CURRENT TIME STEP:     140     ITERATIONS:      10

 -----------------------------------------------------------------------------------

   CUMULATIVE VOLUMES               L**3   RATES FOR THIS TIME STEP           L**3/T
   ------------------                      ------------------------

                                     IN                                         IN
                                     --                                         --
        PRECIPITATION =        1.2765D+07          PRECIPITATION =          68929.28
           STREAMFLOW =                               STREAMFLOW =                  
     GW BOUNDARY FLOW =                         GW BOUNDARY FLOW =                  


                                    OUT                                        OUT
                                    ---                                        ---
   EVAPOTRANSPIRATION =        3479659.10     EVAPOTRANSPIRATION =          59831.41
           STREAMFLOW =        2596078.31             STREAMFLOW =         121074.52
     GW BOUNDARY FLOW =         101583.43       GW BOUNDARY FLOW =            734.23

   INFLOWS - OUTFLOWS =        6587648.27     INFLOWS - OUTFLOWS =        -112710.88
             --------                                   --------

 TOTAL STORAGE CHANGE =        6590783.24         STORAGE CHANGE =        -112698.40
       --------------                             --------------
         LAND SURFACE =        5733342.67           LAND SURFACE =        -263707.48
            SOIL ZONE =        2945200.27              SOIL ZONE =          72590.99
     UNSATURATED ZONE =       -1410083.01       UNSATURATED ZONE =          76352.63
       SATURATED ZONE =        -677676.69         SATURATED ZONE =           2065.45

 OVERALL BUDGET ERROR =          -3134.97           BUDGET ERROR =            -12.48


  PERCENT DISCREPANCY =             -0.02    PERCENT DISCREPANCY =             -0.01



1
 SUMMARY VOLUMETRIC BUDGET FOR GSFLOW 
 DATE: 02 24 1981              CUMULATIVE TIME STEP:     147
 MODFLOW STRESS PERIOD      2     CURRENT TIME STEP:     147     ITERATIONS:       9

 -----------------------------------------------------------------------------------

   CUMULATIVE VOLUMES               L**3   RATES FOR THIS TIME STEP           L**3/T
   ------------------                      ------------------------

                                     IN                                         IN
                                     --                                         --
        PRECIPITATION =        1.3179D+07          PRECIPITATION =         344646.37
           STREAMFLOW =                               STREAMFLOW =                  
     GW BOUNDARY FLOW =                         GW BOUNDARY FLOW =                  


                                    OUT                                        OUT
                                    ---                                        ---
   EVAPOTRANSPIRATION =        3812035.20     EVAPOTRANSPIRATION =          18156.56
           STREAMFLOW =        3148365.30             STREAMFLOW =          49962.16
     GW BOUNDARY FLOW =         106717.53       GW BOUNDARY FLOW =            732.01

   INFLOWS - OUTFLOWS =        6111426.72     INFLOWS - OUTFLOWS =         275795.64
             --------                                   --------

 TOTAL STORAGE CHANGE =        6114593.58         STORAGE CHANGE =         275794.86
       --------------                             --------------
         LAND SURFACE =        5134001.49           LAND SURFACE =         302140.02
            SOIL ZONE =        2688409.94              SOIL ZONE =         -55868.78
     UNSATURATED ZONE =       -1053542.47       UNSATURATED ZONE =          27177.25
       SATURATED ZONE =        -654275.38         SATURATED ZONE =           2346.38

 OVERALL BUDGET ERROR =          -3166.86           BUDGET ERROR =              0.78


  PERCENT DISCREPANCY =             -0.02    PERCENT DISCREPANCY =              0.00



1
 SUMMARY VOLUMETRIC BUDGET FOR GSFLOW 
 DATE: 03 03 1981              CUMULATIVE TIME STEP:     154
 MODFLOW STRESS PERIOD      2     CURRENT TIME STEP:     154     ITERATIONS:       8

 -----------------------------------------------------------------------------------

   CUMULATIVE VOLUMES               L**3   RATES FOR THIS TIME STEP           L**3/T
   ------------------                      ------------------------

                                     IN                                         IN
                                     --                                         --
        PRECIPITATION =        1.3447D+07          PRECIPITATION =                  
           STREAMFLOW =                               STREAMFLOW =                  
     GW BOUNDARY FLOW =                         GW BOUNDARY FLOW =                  


                                    OUT                                        OUT
                                    ---                                        ---
   EVAPOTRANSPIRATION =        3958821.16     EVAPOTRANSPIRATION =          40644.00
           STREAMFLOW =        3368499.65             STREAMFLOW =          27103.17
     GW BOUNDARY FLOW =         111824.91       GW BOUNDARY FLOW =            728.40

   INFLOWS - OUTFLOWS =        6007457.32     INFLOWS - OUTFLOWS =         -68475.57
             --------                                   --------

 TOTAL STORAGE CHANGE =        6010582.23         STORAGE CHANGE =         -68480.55
       --------------                             --------------
         LAND SURFACE =        5236571.40           LAND SURFACE =         -57449.18
            SOIL ZONE =        2483176.05              SOIL ZONE =            466.00
     UNSATURATED ZONE =       -1050593.88       UNSATURATED ZONE =          -9515.84
       SATURATED ZONE =        -658571.34         SATURATED ZONE =          -1981.53

 OVERALL BUDGET ERROR =          -3124.91           BUDGET ERROR =              4.98


  PERCENT DISCREPANCY =             -0.02    PERCENT DISCREPANCY =              0.01



1
 SUMMARY VOLUMETRIC BUDGET FOR GSFLOW 
 DATE: 03 10 1981              CUMULATIVE TIME STEP:     161
 MODFLOW STRESS PERIOD      2     CURRENT TIME STEP:     161     ITERATIONS:       7

 -----------------------------------------------------------------------------------

   CUMULATIVE VOLUMES               L**3   RATES FOR THIS TIME STEP           L**3/T
   ------------------                      ------------------------

                                     IN                                         IN
                                     --                                         --
        PRECIPITATION =        1.3493D+07          PRECIPITATION =                  
           STREAMFLOW =                               STREAMFLOW =                  
     GW BOUNDARY FLOW =                         GW BOUNDARY FLOW =                  


                                    OUT                                        OUT
                                    ---                                        ---
   EVAPOTRANSPIRATION =        4270681.29     EVAPOTRANSPIRATION =          67192.35
           STREAMFLOW =        3589195.99             STREAMFLOW =          40139.14
     GW BOUNDARY FLOW =         116922.53       GW BOUNDARY FLOW =            728.93

   INFLOWS - OUTFLOWS =        5516141.34     INFLOWS - OUTFLOWS =        -108060.42
             --------                                   --------

 TOTAL STORAGE CHANGE =        5519255.48         STORAGE CHANGE =        -108060.82
       --------------                             --------------
         LAND SURFACE =        4665498.34           LAND SURFACE =        -147188.93
            SOIL ZONE =        2571591.64              SOIL ZONE =          24765.46
     UNSATURATED ZONE =       -1043504.18       UNSATURATED ZONE =          15743.59
       SATURATED ZONE =        -674330.32         SATURATED ZONE =          -1380.93

 OVERALL BUDGET ERROR =          -3114.14           BUDGET ERROR =              0.39


  PERCENT DISCREPANCY =             -0.02    PERCENT DISCREPANCY =              0.00



1
 SUMMARY VOLUMETRIC BUDGET FOR GSFLOW 
 DATE: 03 17 1981              CUMULATIVE TIME STEP:     168
 MODFLOW STRESS PERIOD      2     CURRENT TIME STEP:     168     ITERATIONS:       6

 -----------------------------------------------------------------------------------

   CUMULATIVE VOLUMES               L**3   RATES FOR THIS TIME STEP           L**3/T
   ------------------                      ------------------------

                                     IN                                         IN
                                     --                                         --
        PRECIPITATION =        1.3744D+07          PRECIPITATION =                  
           STREAMFLOW =                               STREAMFLOW =                  
     GW BOUNDARY FLOW =                         GW BOUNDARY FLOW =                  


                                    OUT                                        OUT
                                    ---                                        ---
   EVAPOTRANSPIRATION =        4587353.97     EVAPOTRANSPIRATION =          33262.65
           STREAMFLOW =        3805201.16             STREAMFLOW =          23584.83
     GW BOUNDARY FLOW =         122021.99       GW BOUNDARY FLOW =            727.80

   INFLOWS - OUTFLOWS =        5229913.77     INFLOWS - OUTFLOWS =         -57575.28
             --------                                   --------

 TOTAL STORAGE CHANGE =        5233010.49         STORAGE CHANGE =         -57572.89
       --------------                             --------------
         LAND SURFACE =        4532338.70           LAND SURFACE =         -32994.50
            SOIL ZONE =        2435647.62              SOIL ZONE =          -4972.66
     UNSATURATED ZONE =       -1038182.68       UNSATURATED ZONE =         -14533.92
       SATURATED ZONE =        -696793.15         SATURATED ZONE =          -5071.81

 OVERALL BUDGET ERROR =          -3096.72           BUDGET ERROR =             -2.39


  PERCENT DISCREPANCY =             -0.02    PERCENT DISCREPANCY =             -0.00



1
 SUMMARY VOLUMETRIC BUDGET FOR GSFLOW 
 DATE: 03 24 1981              CUMULATIVE TIME STEP:     175
 MODFLOW STRESS PERIOD      2     CURRENT TIME STEP:     175     ITERATIONS:       6

 -----------------------------------------------------------------------------------

   CUMULATIVE VOLUMES               L**3   RATES FOR THIS TIME STEP           L**3/T
   ------------------                      ------------------------

                                     IN                                         IN
                                     --                                         --
        PRECIPITATION =        1.4367D+07          PRECIPITATION =                  
           STREAMFLOW =                               STREAMFLOW =                  
     GW BOUNDARY FLOW =                         GW BOUNDARY FLOW =                  


                                    OUT                                        OUT
                                    ---                                        ---
   EVAPOTRANSPIRATION =        4907177.24     EVAPOTRANSPIRATION =          80764.17
           STREAMFLOW =        3969941.12             STREAMFLOW =          25022.16
     GW BOUNDARY FLOW =         127112.84       GW BOUNDARY FLOW =            727.15

   INFLOWS - OUTFLOWS =        5362514.31     INFLOWS - OUTFLOWS =        -106513.48
             --------                                   --------

 TOTAL STORAGE CHANGE =        5365639.36         STORAGE CHANGE =        -106510.91
       --------------                             --------------
         LAND SURFACE =        4882235.51           LAND SURFACE =         -56598.13
            SOIL ZONE =        2337455.15              SOIL ZONE =         -38089.80
     UNSATURATED ZONE =       -1117064.94       UNSATURATED ZONE =          -5994.59
       SATURATED ZONE =        -736986.36         SATURATED ZONE =          -5828.39

 OVERALL BUDGET ERROR =          -3125.05           BUDGET ERROR =             -2.57


  PERCENT DISCREPANCY =             -0.02    PERCENT DISCREPANCY =             -0.00



1
 SUMMARY VOLUMETRIC BUDGET FOR GSFLOW 
 DATE: 03 31 1981              CUMULATIVE TIME STEP:     182
 MODFLOW STRESS PERIOD      2     CURRENT TIME STEP:     182     ITERATIONS:       8

 -----------------------------------------------------------------------------------

   CUMULATIVE VOLUMES               L**3   RATES FOR THIS TIME STEP           L**3/T
   ------------------                      ------------------------

                                     IN                                         IN
                                     --                                         --
        PRECIPITATION =        1.5777D+07          PRECIPITATION =                  
           STREAMFLOW =                               STREAMFLOW =                  
     GW BOUNDARY FLOW =                         GW BOUNDARY FLOW =                  


                                    OUT                                        OUT
                                    ---                                        ---
   EVAPOTRANSPIRATION =        5295350.54     EVAPOTRANSPIRATION =          42424.06
           STREAMFLOW =        4416342.95             STREAMFLOW =          33540.56
     GW BOUNDARY FLOW =         132228.38       GW BOUNDARY FLOW =            729.65

   INFLOWS - OUTFLOWS =        5932826.11     INFLOWS - OUTFLOWS =         -76694.27
             --------                                   --------

 TOTAL STORAGE CHANGE =        5935947.69         STORAGE CHANGE =         -76700.15
       --------------                             --------------
         LAND SURFACE =        5101875.75           LAND SURFACE =         -42987.31
            SOIL ZONE =        2503831.86              SOIL ZONE =         -32435.48
     UNSATURATED ZONE =        -927009.96       UNSATURATED ZONE =           1429.59
       SATURATED ZONE =        -742749.95         SATURATED ZONE =          -2706.95

 OVERALL BUDGET ERROR =          -3121.58           BUDGET ERROR =              5.89


  PERCENT DISCREPANCY =             -0.02    PERCENT DISCREPANCY =              0.01



1
 SUMMARY VOLUMETRIC BUDGET FOR GSFLOW 
 DATE: 04 07 1981              CUMULATIVE TIME STEP:     189
 MODFLOW STRESS PERIOD      2     CURRENT TIME STEP:     189     ITERATIONS:       7

 -----------------------------------------------------------------------------------

   CUMULATIVE VOLUMES               L**3   RATES FOR THIS TIME STEP           L**3/T
   ------------------                      ------------------------

                                     IN                                         IN
                                     --                                         --
        PRECIPITATION =        1.6121D+07          PRECIPITATION =                  
           STREAMFLOW =                               STREAMFLOW =                  
     GW BOUNDARY FLOW =                         GW BOUNDARY FLOW =                  


                                    OUT                                        OUT
                                    ---                                        ---
   EVAPOTRANSPIRATION =        5889799.35     EVAPOTRANSPIRATION =          97287.85
           STREAMFLOW =        4710035.74             STREAMFLOW =          41976.18
     GW BOUNDARY FLOW =         137336.75       GW BOUNDARY FLOW =            730.20

   INFLOWS - OUTFLOWS =        5384295.76     INFLOWS - OUTFLOWS =        -139994.23
             --------                                   --------

 TOTAL STORAGE CHANGE =        5387400.39         STORAGE CHANGE =        -139997.59
       --------------                             --------------
         LAND SURFACE =        4536824.49           LAND SURFACE =        -138203.79
            SOIL ZONE =        2465481.06              SOIL ZONE =         -11785.37
     UNSATURATED ZONE =        -861092.76       UNSATURATED ZONE =          11309.15
       SATURATED ZONE =        -753812.40         SATURATED ZONE =          -1317.59

 OVERALL BUDGET ERROR =          -3104.63           BUDGET ERROR =              3.36


  PERCENT DISCREPANCY =             -0.02    PERCENT DISCREPANCY =              0.00



1
 SUMMARY VOLUMETRIC BUDGET FOR GSFLOW 
 DATE: 04 14 1981              CUMULATIVE TIME STEP:     196
 MODFLOW STRESS PERIOD      2     CURRENT TIME STEP:     196     ITERATIONS:       9

 -----------------------------------------------------------------------------------

   CUMULATIVE VOLUMES               L**3   RATES FOR THIS TIME STEP           L**3/T
   ------------------                      ------------------------

                                     IN                                         IN
                                     --                                         --
        PRECIPITATION =        1.6121D+07          PRECIPITATION =                  
           STREAMFLOW =                               STREAMFLOW =                  
     GW BOUNDARY FLOW =                         GW BOUNDARY FLOW =                  


                                    OUT                                        OUT
                                    ---                                        ---
   EVAPOTRANSPIRATION =        6753228.51     EVAPOTRANSPIRATION =         187136.52
           STREAMFLOW =        5046116.40             STREAMFLOW =          60645.46
     GW BOUNDARY FLOW =         142449.14       GW BOUNDARY FLOW =            730.76

   INFLOWS - OUTFLOWS =        4179673.56     INFLOWS - OUTFLOWS =        -248512.74
             --------                                   --------

 TOTAL STORAGE CHANGE =        4182769.03         STORAGE CHANGE =        -248511.50
       --------------                             --------------
         LAND SURFACE =        3249108.87           LAND SURFACE =        -276414.16
            SOIL ZONE =        2437293.10              SOIL ZONE =           -680.24
     UNSATURATED ZONE =        -747009.20       UNSATURATED ZONE =          27120.84
       SATURATED ZONE =        -756623.74         SATURATED ZONE =           1462.06

 OVERALL BUDGET ERROR =          -3095.46           BUDGET ERROR =             -1.24


  PERCENT DISCREPANCY =             -0.02    PERCENT DISCREPANCY =             -0.00



1
 SUMMARY VOLUMETRIC BUDGET FOR GSFLOW 
 DATE: 04 21 1981              CUMULATIVE TIME STEP:     203
 MODFLOW STRESS PERIOD      2     CURRENT TIME STEP:     203     ITERATIONS:       9

 -----------------------------------------------------------------------------------

   CUMULATIVE VOLUMES               L**3   RATES FOR THIS TIME STEP           L**3/T
   ------------------                      ------------------------

                                     IN                                         IN
                                     --                                         --
        PRECIPITATION =        1.6310D+07          PRECIPITATION =                  
           STREAMFLOW =                               STREAMFLOW =                  
     GW BOUNDARY FLOW =                         GW BOUNDARY FLOW =                  


                                    OUT                                        OUT
                                    ---                                        ---
   EVAPOTRANSPIRATION =        7798385.01     EVAPOTRANSPIRATION =         153796.07
           STREAMFLOW =        5431430.10             STREAMFLOW =          53676.58
     GW BOUNDARY FLOW =         147560.16       GW BOUNDARY FLOW =            729.73

   INFLOWS - OUTFLOWS =        2932867.37     INFLOWS - OUTFLOWS =        -208202.38
             --------                                   --------

 TOTAL STORAGE CHANGE =        2935957.83         STORAGE CHANGE =        -208204.85
       --------------                             --------------
         LAND SURFACE =        1941586.44           LAND SURFACE =        -141315.80
            SOIL ZONE =        2322651.72              SOIL ZONE =         -93456.10
     UNSATURATED ZONE =        -586681.64       UNSATURATED ZONE =          23334.78
       SATURATED ZONE =        -741598.69         SATURATED ZONE =           3232.27

 OVERALL BUDGET ERROR =          -3090.46           BUDGET ERROR =              2.47


  PERCENT DISCREPANCY =             -0.02    PERCENT DISCREPANCY =              0.00



1
 SUMMARY VOLUMETRIC BUDGET FOR GSFLOW 
 DATE: 04 28 1981              CUMULATIVE TIME STEP:     210
 MODFLOW STRESS PERIOD      2     CURRENT TIME STEP:     210     ITERATIONS:      10

 -----------------------------------------------------------------------------------

   CUMULATIVE VOLUMES               L**3   RATES FOR THIS TIME STEP           L**3/T
   ------------------                      ------------------------

                                     IN                                         IN
                                     --                                         --
        PRECIPITATION =        1.6515D+07          PRECIPITATION =                  
           STREAMFLOW =                               STREAMFLOW =                  
     GW BOUNDARY FLOW =                         GW BOUNDARY FLOW =                  


                                    OUT                                        OUT
                                    ---                                        ---
   EVAPOTRANSPIRATION =        9056665.13     EVAPOTRANSPIRATION =         210631.40
           STREAMFLOW =        5690996.85             STREAMFLOW =          30417.50
     GW BOUNDARY FLOW =         152657.44       GW BOUNDARY FLOW =            727.00

   INFLOWS - OUTFLOWS =        1615113.46     INFLOWS - OUTFLOWS =        -241775.90
             --------                                   --------

 TOTAL STORAGE CHANGE =        1618181.34         STORAGE CHANGE =        -241777.53
       --------------                             --------------
         LAND SURFACE =        1047886.52           LAND SURFACE =        -108965.88
            SOIL ZONE =        1829608.51              SOIL ZONE =        -138016.22
     UNSATURATED ZONE =        -531114.65       UNSATURATED ZONE =           3714.91
       SATURATED ZONE =        -728199.04         SATURATED ZONE =           1489.66

 OVERALL BUDGET ERROR =          -3067.88           BUDGET ERROR =              1.62


  PERCENT DISCREPANCY =             -0.02    PERCENT DISCREPANCY =              0.00



1
 SUMMARY VOLUMETRIC BUDGET FOR GSFLOW 
 DATE: 05 05 1981              CUMULATIVE TIME STEP:     217
 MODFLOW STRESS PERIOD      2     CURRENT TIME STEP:     217     ITERATIONS:      10

 -----------------------------------------------------------------------------------

   CUMULATIVE VOLUMES               L**3   RATES FOR THIS TIME STEP           L**3/T
   ------------------                      ------------------------

                                     IN                                         IN
                                     --                                         --
        PRECIPITATION =        1.6515D+07          PRECIPITATION =                  
           STREAMFLOW =                               STREAMFLOW =                  
     GW BOUNDARY FLOW =                         GW BOUNDARY FLOW =                  


                                    OUT                                        OUT
                                    ---                                        ---
   EVAPOTRANSPIRATION =        9913858.24     EVAPOTRANSPIRATION =          46996.72
           STREAMFLOW =        5813875.33             STREAMFLOW =          11657.82
     GW BOUNDARY FLOW =         157736.15       GW BOUNDARY FLOW =            724.45

   INFLOWS - OUTFLOWS =         629963.17     INFLOWS - OUTFLOWS =         -59379.00
             --------                                   --------

 TOTAL STORAGE CHANGE =         633031.45         STORAGE CHANGE =         -59376.22
       --------------                             --------------
         LAND SURFACE =         583908.85           LAND SURFACE =         -19597.75
            SOIL ZONE =        1385189.81              SOIL ZONE =         -23303.27
     UNSATURATED ZONE =        -597509.01       UNSATURATED ZONE =         -13932.78
       SATURATED ZONE =        -738558.20         SATURATED ZONE =          -2542.42

 OVERALL BUDGET ERROR =          -3068.28           BUDGET ERROR =             -2.78


  PERCENT DISCREPANCY =             -0.02    PERCENT DISCREPANCY =             -0.00



1
 SUMMARY VOLUMETRIC BUDGET FOR GSFLOW 
 DATE: 05 12 1981              CUMULATIVE TIME STEP:     224
 MODFLOW STRESS PERIOD      2     CURRENT TIME STEP:     224     ITERATIONS:      10

 -----------------------------------------------------------------------------------

   CUMULATIVE VOLUMES               L**3   RATES FOR THIS TIME STEP           L**3/T
   ------------------                      ------------------------

                                     IN                                         IN
                                     --                                         --
        PRECIPITATION =        1.6515D+07          PRECIPITATION =                  
           STREAMFLOW =                               STREAMFLOW =                  
     GW BOUNDARY FLOW =                         GW BOUNDARY FLOW =                  


                                    OUT                                        OUT
                                    ---                                        ---
   EVAPOTRANSPIRATION =        1.0446D+07     EVAPOTRANSPIRATION =         101697.72
           STREAMFLOW =        5894587.31             STREAMFLOW =          12780.29
     GW BOUNDARY FLOW =         162803.50       GW BOUNDARY FLOW =            723.81

   INFLOWS - OUTFLOWS =          12230.76     INFLOWS - OUTFLOWS =        -115201.82
             --------                                   --------

 TOTAL STORAGE CHANGE =          15323.27         STORAGE CHANGE =        -115197.22
       --------------                             --------------
         LAND SURFACE =         364139.11           LAND SURFACE =         -39545.56
            SOIL ZONE =        1103873.09              SOIL ZONE =         -60832.97
     UNSATURATED ZONE =        -686961.17       UNSATURATED ZONE =         -10062.32
       SATURATED ZONE =        -765727.77         SATURATED ZONE =          -4756.37

 OVERALL BUDGET ERROR =          -3092.51           BUDGET ERROR =             -4.60


  PERCENT DISCREPANCY =             -0.02    PERCENT DISCREPANCY =             -0.00



1
 SUMMARY VOLUMETRIC BUDGET FOR GSFLOW 
 DATE: 05 19 1981              CUMULATIVE TIME STEP:     231
 MODFLOW STRESS PERIOD      2     CURRENT TIME STEP:     231     ITERATIONS:      12

 -----------------------------------------------------------------------------------

   CUMULATIVE VOLUMES               L**3   RATES FOR THIS TIME STEP           L**3/T
   ------------------                      ------------------------

                                     IN                                         IN
                                     --                                         --
        PRECIPITATION =        1.7837D+07          PRECIPITATION =         169045.43
           STREAMFLOW =                               STREAMFLOW =                  
     GW BOUNDARY FLOW =                         GW BOUNDARY FLOW =                  


                                    OUT                                        OUT
                                    ---                                        ---
   EVAPOTRANSPIRATION =        1.0792D+07     EVAPOTRANSPIRATION =          31098.89
           STREAMFLOW =        6048861.10             STREAMFLOW =          31762.06
     GW BOUNDARY FLOW =         167873.47       GW BOUNDARY FLOW =            725.87

   INFLOWS - OUTFLOWS =         828523.31     INFLOWS - OUTFLOWS =         105458.60
             --------                                   --------

 TOTAL STORAGE CHANGE =         831645.39         STORAGE CHANGE =         105462.88
       --------------                             --------------
         LAND SURFACE =         315733.69           LAND SURFACE =          16905.78
            SOIL ZONE =        2040583.40              SOIL ZONE =          86005.37
     UNSATURATED ZONE =        -723298.88       UNSATURATED ZONE =           6850.76
       SATURATED ZONE =        -801372.82         SATURATED ZONE =          -4299.03

 OVERALL BUDGET ERROR =          -3122.08           BUDGET ERROR =             -4.28


  PERCENT DISCREPANCY =             -0.02    PERCENT DISCREPANCY =             -0.00



1
 SUMMARY VOLUMETRIC BUDGET FOR GSFLOW 
 DATE: 05 26 1981              CUMULATIVE TIME STEP:     238
 MODFLOW STRESS PERIOD      2     CURRENT TIME STEP:     238     ITERATIONS:      11

 -----------------------------------------------------------------------------------

   CUMULATIVE VOLUMES               L**3   RATES FOR THIS TIME STEP           L**3/T
   ------------------                      ------------------------

                                     IN                                         IN
                                     --                                         --
        PRECIPITATION =        1.8252D+07          PRECIPITATION =         284303.67
           STREAMFLOW =                               STREAMFLOW =                  
     GW BOUNDARY FLOW =                         GW BOUNDARY FLOW =                  


                                    OUT                                        OUT
                                    ---                                        ---
   EVAPOTRANSPIRATION =        1.1581D+07     EVAPOTRANSPIRATION =         126247.52
           STREAMFLOW =        6186692.28             STREAMFLOW =          24136.18
     GW BOUNDARY FLOW =         172947.26       GW BOUNDARY FLOW =            724.57

   INFLOWS - OUTFLOWS =         311050.40     INFLOWS - OUTFLOWS =         133195.40
             --------                                   --------

 TOTAL STORAGE CHANGE =         314195.25         STORAGE CHANGE =         133200.05
       --------------                             --------------
         LAND SURFACE =         197572.66           LAND SURFACE =         -13397.86
            SOIL ZONE =        1709795.26              SOIL ZONE =         158536.72
     UNSATURATED ZONE =        -750097.33       UNSATURATED ZONE =          -6312.39
       SATURATED ZONE =        -843075.33         SATURATED ZONE =          -5626.42

 OVERALL BUDGET ERROR =          -3144.86           BUDGET ERROR =             -4.65


  PERCENT DISCREPANCY =             -0.02    PERCENT DISCREPANCY =             -0.00



1
 SUMMARY VOLUMETRIC BUDGET FOR GSFLOW 
 DATE: 06 02 1981              CUMULATIVE TIME STEP:     245
 MODFLOW STRESS PERIOD      2     CURRENT TIME STEP:     245     ITERATIONS:       9

 -----------------------------------------------------------------------------------

   CUMULATIVE VOLUMES               L**3   RATES FOR THIS TIME STEP           L**3/T
   ------------------                      ------------------------

                                     IN                                         IN
                                     --                                         --
        PRECIPITATION =        1.8318D+07          PRECIPITATION =          50869.96
           STREAMFLOW =                               STREAMFLOW =                  
     GW BOUNDARY FLOW =                         GW BOUNDARY FLOW =                  


                                    OUT                                        OUT
                                    ---                                        ---
   EVAPOTRANSPIRATION =        1.2411D+07     EVAPOTRANSPIRATION =          66937.34
           STREAMFLOW =        6272845.18             STREAMFLOW =           9081.84
     GW BOUNDARY FLOW =         178012.99       GW BOUNDARY FLOW =            722.98

   INFLOWS - OUTFLOWS =        -543244.97     INFLOWS - OUTFLOWS =         -25872.21
             --------                                   --------

 TOTAL STORAGE CHANGE =        -540062.87         STORAGE CHANGE =         -25866.42
       --------------                             --------------
         LAND SURFACE =         119474.96           LAND SURFACE =          25659.25
            SOIL ZONE =        1063030.62              SOIL ZONE =         -31394.19
     UNSATURATED ZONE =        -828015.35       UNSATURATED ZONE =         -12326.94
       SATURATED ZONE =        -894553.10         SATURATED ZONE =          -7804.54

 OVERALL BUDGET ERROR =          -3182.10           BUDGET ERROR =             -5.80


  PERCENT DISCREPANCY =             -0.02    PERCENT DISCREPANCY =             -0.01



1
 SUMMARY VOLUMETRIC BUDGET FOR GSFLOW 
 DATE: 06 09 1981              CUMULATIVE TIME STEP:     252
 MODFLOW STRESS PERIOD      2     CURRENT TIME STEP:     252     ITERATIONS:      10

 -----------------------------------------------------------------------------------

   CUMULATIVE VOLUMES               L**3   RATES FOR THIS TIME STEP           L**3/T
   ------------------                      ------------------------

                                     IN                                         IN
                                     --                                         --
        PRECIPITATION =        1.8318D+07          PRECIPITATION =                  
           STREAMFLOW =                               STREAMFLOW =                  
     GW BOUNDARY FLOW =                         GW BOUNDARY FLOW =                  


                                    OUT                                        OUT
                                    ---                                        ---
   EVAPOTRANSPIRATION =        1.2966D+07     EVAPOTRANSPIRATION =          55715.62
           STREAMFLOW =        6327581.51             STREAMFLOW =           7212.10
     GW BOUNDARY FLOW =         183070.79       GW BOUNDARY FLOW =            722.29

   INFLOWS - OUTFLOWS =       -1158627.62     INFLOWS - OUTFLOWS =         -63650.02
             --------                                   --------

 TOTAL STORAGE CHANGE =       -1155407.52         STORAGE CHANGE =         -63644.68
       --------------                             --------------
         LAND SURFACE =          39669.52           LAND SURFACE =          -4382.74
            SOIL ZONE =         669650.05              SOIL ZONE =         -38724.28
     UNSATURATED ZONE =        -911797.37       UNSATURATED ZONE =         -11942.89
       SATURATED ZONE =        -952929.72         SATURATED ZONE =          -8594.77

 OVERALL BUDGET ERROR =          -3220.10           BUDGET ERROR =             -5.34


  PERCENT DISCREPANCY =             -0.02    PERCENT DISCREPANCY =             -0.01



1
 SUMMARY VOLUMETRIC BUDGET FOR GSFLOW 
 DATE: 06 16 1981              CUMULATIVE TIME STEP:     259
 MODFLOW STRESS PERIOD      2     CURRENT TIME STEP:     259     ITERATIONS:       9

 -----------------------------------------------------------------------------------

   CUMULATIVE VOLUMES               L**3   RATES FOR THIS TIME STEP           L**3/T
   ------------------                      ------------------------

                                     IN                                         IN
                                     --                                         --
        PRECIPITATION =        1.8318D+07          PRECIPITATION =                  
           STREAMFLOW =                               STREAMFLOW =                  
     GW BOUNDARY FLOW =                         GW BOUNDARY FLOW =                  


                                    OUT                                        OUT
                                    ---                                        ---
   EVAPOTRANSPIRATION =        1.3175D+07     EVAPOTRANSPIRATION =          47456.87
           STREAMFLOW =        6375263.16             STREAMFLOW =           6659.91
     GW BOUNDARY FLOW =         188125.49       GW BOUNDARY FLOW =            721.99

   INFLOWS - OUTFLOWS =       -1420318.87     INFLOWS - OUTFLOWS =         -54838.76
             --------                                   --------

 TOTAL STORAGE CHANGE =       -1417060.72         STORAGE CHANGE =         -54833.46
       --------------                             --------------
         LAND SURFACE =          25589.67           LAND SURFACE =          -3042.77
            SOIL ZONE =         571964.36              SOIL ZONE =         -30093.23
     UNSATURATED ZONE =       -1000608.48       UNSATURATED ZONE =         -12772.22
       SATURATED ZONE =       -1014006.27         SATURATED ZONE =          -8925.24

 OVERALL BUDGET ERROR =          -3258.15           BUDGET ERROR =             -5.31


  PERCENT DISCREPANCY =             -0.02    PERCENT DISCREPANCY =             -0.01



1
 SUMMARY VOLUMETRIC BUDGET FOR GSFLOW 
 DATE: 06 23 1981              CUMULATIVE TIME STEP:     266
 MODFLOW STRESS PERIOD      2     CURRENT TIME STEP:     266     ITERATIONS:      11

 -----------------------------------------------------------------------------------

   CUMULATIVE VOLUMES               L**3   RATES FOR THIS TIME STEP           L**3/T
   ------------------                      ------------------------

                                     IN                                         IN
                                     --                                         --
        PRECIPITATION =        1.8318D+07          PRECIPITATION =                  
           STREAMFLOW =                               STREAMFLOW =                  
     GW BOUNDARY FLOW =                         GW BOUNDARY FLOW =                  


                                    OUT                                        OUT
                                    ---                                        ---
   EVAPOTRANSPIRATION =        1.3517D+07     EVAPOTRANSPIRATION =          40243.67
           STREAMFLOW =        6419604.00             STREAMFLOW =           6091.58
     GW BOUNDARY FLOW =         193178.34       GW BOUNDARY FLOW =            721.70

   INFLOWS - OUTFLOWS =       -1812014.23     INFLOWS - OUTFLOWS =         -47056.95
             --------                                   --------

 TOTAL STORAGE CHANGE =       -1808716.81         STORAGE CHANGE =         -47051.31
       --------------                             --------------
         LAND SURFACE =           6959.28           LAND SURFACE =          -1578.51
            SOIL ZONE =         352084.75              SOIL ZONE =         -23669.55
     UNSATURATED ZONE =       -1088013.00       UNSATURATED ZONE =         -12178.64
       SATURATED ZONE =       -1079747.84         SATURATED ZONE =          -9624.60

 OVERALL BUDGET ERROR =          -3297.42           BUDGET ERROR =             -5.64


  PERCENT DISCREPANCY =             -0.02    PERCENT DISCREPANCY =             -0.01



1
 SUMMARY VOLUMETRIC BUDGET FOR GSFLOW 
 DATE: 06 30 1981              CUMULATIVE TIME STEP:     273
 MODFLOW STRESS PERIOD      2     CURRENT TIME STEP:     273     ITERATIONS:       9

 -----------------------------------------------------------------------------------

   CUMULATIVE VOLUMES               L**3   RATES FOR THIS TIME STEP           L**3/T
   ------------------                      ------------------------

                                     IN                                         IN
[...]
                                    ---                                        ---
   EVAPOTRANSPIRATION =        2.8375D+08     EVAPOTRANSPIRATION =          48854.81
           STREAMFLOW =        1.8423D+08             STREAMFLOW =           7404.73
     GW BOUNDARY FLOW =        4176983.73       GW BOUNDARY FLOW =            726.10

   INFLOWS - OUTFLOWS =       -7092964.36     INFLOWS - OUTFLOWS =         -56985.64
             --------                                   --------

 TOTAL STORAGE CHANGE =       -7075295.24         STORAGE CHANGE =         -56987.09
       --------------                             --------------
         LAND SURFACE =         214963.45           LAND SURFACE =         -10645.32
            SOIL ZONE =         330287.86              SOIL ZONE =         -24723.21
     UNSATURATED ZONE =        5276439.29       UNSATURATED ZONE =         -29196.24
       SATURATED ZONE =       -1.2897D+07         SATURATED ZONE =           7577.68

 OVERALL BUDGET ERROR =         -17669.12           BUDGET ERROR =              1.44


  PERCENT DISCREPANCY =             -0.00    PERCENT DISCREPANCY =              0.00



1
 SUMMARY VOLUMETRIC BUDGET FOR GSFLOW 
 DATE: 07 30 1996              CUMULATIVE TIME STEP:    5782
 MODFLOW STRESS PERIOD      2     CURRENT TIME STEP:    5782     ITERATIONS:      10

 -----------------------------------------------------------------------------------

   CUMULATIVE VOLUMES               L**3   RATES FOR THIS TIME STEP           L**3/T
   ------------------                      ------------------------

                                     IN                                         IN
                                     --                                         --
        PRECIPITATION =        4.6511D+08          PRECIPITATION =                  
           STREAMFLOW =                               STREAMFLOW =                  
     GW BOUNDARY FLOW =                         GW BOUNDARY FLOW =                  


                                    OUT                                        OUT
                                    ---                                        ---
   EVAPOTRANSPIRATION =        2.8406D+08     EVAPOTRANSPIRATION =          34682.10
           STREAMFLOW =        1.8428D+08             STREAMFLOW =           7094.03
     GW BOUNDARY FLOW =        4182064.33       GW BOUNDARY FLOW =            725.67

   INFLOWS - OUTFLOWS =       -7407669.52     INFLOWS - OUTFLOWS =         -42501.80
             --------                                   --------

 TOTAL STORAGE CHANGE =       -7389999.95         STORAGE CHANGE =         -42501.03
       --------------                             --------------
         LAND SURFACE =         152309.38           LAND SURFACE =          -7555.65
            SOIL ZONE =         230407.42              SOIL ZONE =         -13314.21
     UNSATURATED ZONE =        5077164.91       UNSATURATED ZONE =         -28141.66
       SATURATED ZONE =       -1.2850D+07         SATURATED ZONE =           6510.49

 OVERALL BUDGET ERROR =         -17669.58           BUDGET ERROR =             -0.77


  PERCENT DISCREPANCY =             -0.00    PERCENT DISCREPANCY =             -0.00



1
 SUMMARY VOLUMETRIC BUDGET FOR GSFLOW 
 DATE: 08 06 1996              CUMULATIVE TIME STEP:    5789
 MODFLOW STRESS PERIOD      2     CURRENT TIME STEP:    5789     ITERATIONS:      10

 -----------------------------------------------------------------------------------

   CUMULATIVE VOLUMES               L**3   RATES FOR THIS TIME STEP           L**3/T
   ------------------                      ------------------------

                                     IN                                         IN
                                     --                                         --
        PRECIPITATION =        4.6511D+08          PRECIPITATION =                  
           STREAMFLOW =                               STREAMFLOW =                  
     GW BOUNDARY FLOW =                         GW BOUNDARY FLOW =                  


                                    OUT                                        OUT
                                    ---                                        ---
   EVAPOTRANSPIRATION =        2.8424D+08     EVAPOTRANSPIRATION =          24700.87
           STREAMFLOW =        1.8433D+08             STREAMFLOW =           6806.31
     GW BOUNDARY FLOW =        4187143.26       GW BOUNDARY FLOW =            725.47

   INFLOWS - OUTFLOWS =       -7644238.41     INFLOWS - OUTFLOWS =         -32232.65
             --------                                   --------

 TOTAL STORAGE CHANGE =       -7626561.36         STORAGE CHANGE =         -32231.38
       --------------                             --------------
         LAND SURFACE =         111776.46           LAND SURFACE =          -5017.65
            SOIL ZONE =         184414.50              SOIL ZONE =          -5924.63
     UNSATURATED ZONE =        4886271.11       UNSATURATED ZONE =         -26469.98
       SATURATED ZONE =       -1.2809D+07         SATURATED ZONE =           5180.88

 OVERALL BUDGET ERROR =         -17677.05           BUDGET ERROR =             -1.28


  PERCENT DISCREPANCY =             -0.00    PERCENT DISCREPANCY =             -0.00



1
 SUMMARY VOLUMETRIC BUDGET FOR GSFLOW 
 DATE: 08 13 1996              CUMULATIVE TIME STEP:    5796
 MODFLOW STRESS PERIOD      2     CURRENT TIME STEP:    5796     ITERATIONS:      10

 -----------------------------------------------------------------------------------

   CUMULATIVE VOLUMES               L**3   RATES FOR THIS TIME STEP           L**3/T
   ------------------                      ------------------------

                                     IN                                         IN
                                     --                                         --
        PRECIPITATION =        4.6531D+08          PRECIPITATION =          54454.08
           STREAMFLOW =                               STREAMFLOW =                  
     GW BOUNDARY FLOW =                         GW BOUNDARY FLOW =                  


                                    OUT                                        OUT
                                    ---                                        ---
   EVAPOTRANSPIRATION =        2.8446D+08     EVAPOTRANSPIRATION =          36870.57
           STREAMFLOW =        1.8438D+08             STREAMFLOW =           7999.36
     GW BOUNDARY FLOW =        4192220.78       GW BOUNDARY FLOW =            725.36

   INFLOWS - OUTFLOWS =       -7712471.35     INFLOWS - OUTFLOWS =           8858.79
             --------                                   --------

 TOTAL STORAGE CHANGE =       -7694774.87         STORAGE CHANGE =           8860.48
       --------------                             --------------
         LAND SURFACE =         105220.94           LAND SURFACE =          -5194.35
            SOIL ZONE =         270173.54              SOIL ZONE =          34923.06
     UNSATURATED ZONE =        4704770.74       UNSATURATED ZONE =         -25418.82
       SATURATED ZONE =       -1.2775D+07         SATURATED ZONE =           4550.59

 OVERALL BUDGET ERROR =         -17696.48           BUDGET ERROR =             -1.70


  PERCENT DISCREPANCY =             -0.00    PERCENT DISCREPANCY =             -0.00



1
 SUMMARY VOLUMETRIC BUDGET FOR GSFLOW 
 DATE: 08 20 1996              CUMULATIVE TIME STEP:    5803
 MODFLOW STRESS PERIOD      2     CURRENT TIME STEP:    5803     ITERATIONS:      10

 -----------------------------------------------------------------------------------

   CUMULATIVE VOLUMES               L**3   RATES FOR THIS TIME STEP           L**3/T
   ------------------                      ------------------------

                                     IN                                         IN
                                     --                                         --
        PRECIPITATION =        4.6531D+08          PRECIPITATION =                  
           STREAMFLOW =                               STREAMFLOW =                  
     GW BOUNDARY FLOW =                         GW BOUNDARY FLOW =                  


                                    OUT                                        OUT
                                    ---                                        ---
   EVAPOTRANSPIRATION =        2.8468D+08     EVAPOTRANSPIRATION =          18033.73
           STREAMFLOW =        1.8442D+08             STREAMFLOW =           6549.97
     GW BOUNDARY FLOW =        4197296.22       GW BOUNDARY FLOW =            724.85

   INFLOWS - OUTFLOWS =       -7983448.72     INFLOWS - OUTFLOWS =         -25308.55
             --------                                   --------

 TOTAL STORAGE CHANGE =       -7965741.27         STORAGE CHANGE =         -25306.66
       --------------                             --------------
         LAND SURFACE =          44442.31           LAND SURFACE =          -2851.34
            SOIL ZONE =         205715.29              SOIL ZONE =          -1758.34
     UNSATURATED ZONE =        4532781.28       UNSATURATED ZONE =         -24088.75
       SATURATED ZONE =       -1.2749D+07         SATURATED ZONE =           3391.77

 OVERALL BUDGET ERROR =         -17707.45           BUDGET ERROR =             -1.90


  PERCENT DISCREPANCY =             -0.00    PERCENT DISCREPANCY =             -0.01



1
 SUMMARY VOLUMETRIC BUDGET FOR GSFLOW 
 DATE: 08 27 1996              CUMULATIVE TIME STEP:    5810
 MODFLOW STRESS PERIOD      2     CURRENT TIME STEP:    5810     ITERATIONS:       9

 -----------------------------------------------------------------------------------

   CUMULATIVE VOLUMES               L**3   RATES FOR THIS TIME STEP           L**3/T
   ------------------                      ------------------------

                                     IN                                         IN
                                     --                                         --
        PRECIPITATION =        4.6531D+08          PRECIPITATION =                  
           STREAMFLOW =                               STREAMFLOW =                  
     GW BOUNDARY FLOW =                         GW BOUNDARY FLOW =                  


                                    OUT                                        OUT
                                    ---                                        ---
   EVAPOTRANSPIRATION =        2.8484D+08     EVAPOTRANSPIRATION =          18539.26
           STREAMFLOW =        1.8447D+08             STREAMFLOW =           6379.98
     GW BOUNDARY FLOW =        4202368.27       GW BOUNDARY FLOW =            724.39

   INFLOWS - OUTFLOWS =       -8195044.91     INFLOWS - OUTFLOWS =         -25643.63
             --------                                   --------

 TOTAL STORAGE CHANGE =       -8177336.34         STORAGE CHANGE =         -25644.53
       --------------                             --------------
         LAND SURFACE =          21435.24           LAND SURFACE =          -2621.72
            SOIL ZONE =         160923.03              SOIL ZONE =          -2592.85
     UNSATURATED ZONE =        4368876.00       UNSATURATED ZONE =         -22915.02
       SATURATED ZONE =       -1.2729D+07         SATURATED ZONE =           2485.06

 OVERALL BUDGET ERROR =         -17708.58           BUDGET ERROR =              0.90


  PERCENT DISCREPANCY =             -0.00    PERCENT DISCREPANCY =              0.00



1
 SUMMARY VOLUMETRIC BUDGET FOR GSFLOW 
 DATE: 09 03 1996              CUMULATIVE TIME STEP:    5817
 MODFLOW STRESS PERIOD      2     CURRENT TIME STEP:    5817     ITERATIONS:       9

 -----------------------------------------------------------------------------------

   CUMULATIVE VOLUMES               L**3   RATES FOR THIS TIME STEP           L**3/T
   ------------------                      ------------------------

                                     IN                                         IN
                                     --                                         --
        PRECIPITATION =        4.6531D+08          PRECIPITATION =                  
           STREAMFLOW =                               STREAMFLOW =                  
     GW BOUNDARY FLOW =                         GW BOUNDARY FLOW =                  


                                    OUT                                        OUT
                                    ---                                        ---
   EVAPOTRANSPIRATION =        2.8496D+08     EVAPOTRANSPIRATION =          14273.62
           STREAMFLOW =        1.8451D+08             STREAMFLOW =           6262.17
     GW BOUNDARY FLOW =        4207437.11       GW BOUNDARY FLOW =            723.93

   INFLOWS - OUTFLOWS =       -8362064.09     INFLOWS - OUTFLOWS =         -21259.73
             --------                                   --------

 TOTAL STORAGE CHANGE =       -8344358.38         STORAGE CHANGE =         -21260.14
       --------------                             --------------
         LAND SURFACE =           7240.32           LAND SURFACE =          -1278.90
            SOIL ZONE =         150093.42              SOIL ZONE =            198.99
     UNSATURATED ZONE =        4212764.02       UNSATURATED ZONE =         -22096.38
       SATURATED ZONE =       -1.2714D+07         SATURATED ZONE =           1916.15

 OVERALL BUDGET ERROR =         -17705.71           BUDGET ERROR =              0.41


  PERCENT DISCREPANCY =             -0.00    PERCENT DISCREPANCY =              0.00



1
 SUMMARY VOLUMETRIC BUDGET FOR GSFLOW 
 DATE: 09 10 1996              CUMULATIVE TIME STEP:    5824
 MODFLOW STRESS PERIOD      2     CURRENT TIME STEP:    5824     ITERATIONS:       8

 -----------------------------------------------------------------------------------

   CUMULATIVE VOLUMES               L**3   RATES FOR THIS TIME STEP           L**3/T
   ------------------                      ------------------------

                                     IN                                         IN
                                     --                                         --
        PRECIPITATION =        4.6531D+08          PRECIPITATION =                  
           STREAMFLOW =                               STREAMFLOW =                  
     GW BOUNDARY FLOW =                         GW BOUNDARY FLOW =                  


                                    OUT                                        OUT
                                    ---                                        ---
   EVAPOTRANSPIRATION =        2.8505D+08     EVAPOTRANSPIRATION =          14124.90
           STREAMFLOW =        1.8456D+08             STREAMFLOW =           6152.53
     GW BOUNDARY FLOW =        4212502.86       GW BOUNDARY FLOW =            723.49

   INFLOWS - OUTFLOWS =       -8502837.54     INFLOWS - OUTFLOWS =         -21000.92
             --------                                   --------

 TOTAL STORAGE CHANGE =       -8485176.62         STORAGE CHANGE =         -21006.78
       --------------                             --------------
         LAND SURFACE =           2510.71           LAND SURFACE =           -704.62
            SOIL ZONE =         154363.00              SOIL ZONE =           -351.04
     UNSATURATED ZONE =        4061238.39       UNSATURATED ZONE =         -21337.83
       SATURATED ZONE =       -1.2703D+07         SATURATED ZONE =           1386.71

 OVERALL BUDGET ERROR =         -17660.92           BUDGET ERROR =              5.86


  PERCENT DISCREPANCY =             -0.00    PERCENT DISCREPANCY =              0.03



1
 SUMMARY VOLUMETRIC BUDGET FOR GSFLOW 
 DATE: 09 17 1996              CUMULATIVE TIME STEP:    5831
 MODFLOW STRESS PERIOD      2     CURRENT TIME STEP:    5831     ITERATIONS:       8

 -----------------------------------------------------------------------------------

   CUMULATIVE VOLUMES               L**3   RATES FOR THIS TIME STEP           L**3/T
   ------------------                      ------------------------

                                     IN                                         IN
                                     --                                         --
        PRECIPITATION =        4.6637D+08          PRECIPITATION =                  
           STREAMFLOW =                               STREAMFLOW =                  
     GW BOUNDARY FLOW =                         GW BOUNDARY FLOW =                  


                                    OUT                                        OUT
                                    ---                                        ---
   EVAPOTRANSPIRATION =        2.8522D+08     EVAPOTRANSPIRATION =          52774.70
           STREAMFLOW =        1.8462D+08             STREAMFLOW =          10288.31
     GW BOUNDARY FLOW =        4217568.23       GW BOUNDARY FLOW =            724.08

   INFLOWS - OUTFLOWS =       -7695437.81     INFLOWS - OUTFLOWS =         -63787.10
             --------                                   --------

 TOTAL STORAGE CHANGE =       -7677812.73         STORAGE CHANGE =         -63791.72
       --------------                             --------------
         LAND SURFACE =            882.14           LAND SURFACE =         -33826.70
            SOIL ZONE =        1100207.36              SOIL ZONE =         -10233.66
     UNSATURATED ZONE =        3916044.31       UNSATURATED ZONE =         -20338.80
       SATURATED ZONE =       -1.2695D+07         SATURATED ZONE =            607.43

 OVERALL BUDGET ERROR =         -17625.07           BUDGET ERROR =              4.63


  PERCENT DISCREPANCY =             -0.00    PERCENT DISCREPANCY =              0.01



1
 SUMMARY VOLUMETRIC BUDGET FOR GSFLOW 
 DATE: 09 24 1996              CUMULATIVE TIME STEP:    5838
 MODFLOW STRESS PERIOD      2     CURRENT TIME STEP:    5838     ITERATIONS:      13

 -----------------------------------------------------------------------------------

   CUMULATIVE VOLUMES               L**3   RATES FOR THIS TIME STEP           L**3/T
   ------------------                      ------------------------

                                     IN                                         IN
                                     --                                         --
        PRECIPITATION =        4.6637D+08          PRECIPITATION =                  
           STREAMFLOW =                               STREAMFLOW =                  
     GW BOUNDARY FLOW =                         GW BOUNDARY FLOW =                  


                                    OUT                                        OUT
                                    ---                                        ---
   EVAPOTRANSPIRATION =        2.8568D+08     EVAPOTRANSPIRATION =          54659.53
           STREAMFLOW =        1.8468D+08             STREAMFLOW =           6734.64
     GW BOUNDARY FLOW =        4222632.04       GW BOUNDARY FLOW =            723.01

   INFLOWS - OUTFLOWS =       -8216397.84     INFLOWS - OUTFLOWS =         -62117.18
             --------                                   --------

 TOTAL STORAGE CHANGE =       -8198780.60         STORAGE CHANGE =         -62111.66
       --------------                             --------------
         LAND SURFACE =                             LAND SURFACE =                  
            SOIL ZONE =         717417.74              SOIL ZONE =         -42589.74
     UNSATURATED ZONE =        3778618.19       UNSATURATED ZONE =         -19190.44
       SATURATED ZONE =       -1.2695D+07         SATURATED ZONE =           -331.48

 OVERALL BUDGET ERROR =         -17617.24           BUDGET ERROR =             -5.53


  PERCENT DISCREPANCY =             -0.00    PERCENT DISCREPANCY =             -0.01



