1
 SUMMARY VOLUMETRIC BUDGET FOR GSFLOW 
 DATE: 10 07 1980              CUMULATIVE TIME STEP:       7
 MODFLOW STRESS PERIOD      2     CURRENT TIME STEP:       7     ITERATIONS:       4

 -----------------------------------------------------------------------------------

   CUMULATIVE VOLUMES               L**3   RATES FOR THIS TIME STEP           L**3/T
   ------------------                      ------------------------

                                     IN                                         IN
                                     --                                         --
        PRECIPITATION =                            PRECIPITATION =                  
           STREAMFLOW =                               STREAMFLOW =                  
     GW BOUNDARY FLOW =                         GW BOUNDARY FLOW =                  


                                    OUT                                        OUT
                                    ---                                        ---
   EVAPOTRANSPIRATION =          63052.02     EVAPOTRANSPIRATION =           9234.40
           STREAMFLOW =          43081.79             STREAMFLOW =           6083.36
     GW BOUNDARY FLOW =           5067.91       GW BOUNDARY FLOW =            723.89

   INFLOWS - OUTFLOWS =        -111201.71     INFLOWS - OUTFLOWS =         -16041.66
             --------                                   --------

 TOTAL STORAGE CHANGE =        -110967.58         STORAGE CHANGE =         -16007.41
       --------------                             --------------
         LAND SURFACE =                             LAND SURFACE =                  
            SOIL ZONE =          47393.18              SOIL ZONE =           6452.18
     UNSATURATED ZONE =        -144965.30       UNSATURATED ZONE =         -20382.35
       SATURATED ZONE =         -13395.46         SATURATED ZONE =          -2077.23

 OVERALL BUDGET ERROR =           -234.13           BUDGET ERROR =            -34.25


  PERCENT DISCREPANCY =             -0.21    PERCENT DISCREPANCY =             -0.21



1
 SUMMARY VOLUMETRIC BUDGET FOR GSFLOW 
 DATE: 10 14 1980              CUMULATIVE TIME STEP:      14
 MODFLOW STRESS PERIOD      2     CURRENT TIME STEP:      14     ITERATIONS:       4

 -----------------------------------------------------------------------------------

   CUMULATIVE VOLUMES               L**3   RATES FOR THIS TIME STEP           L**3/T
   ------------------                      ------------------------

                                     IN                                         IN
                                     --                                         --
        PRECIPITATION =         650779.83          PRECIPITATION =         164754.40
           STREAMFLOW =                               STREAMFLOW =                  
     GW BOUNDARY FLOW =                         GW BOUNDARY FLOW =                  


                                    OUT                                        OUT
                                    ---                                        ---
   EVAPOTRANSPIRATION =         147619.36     EVAPOTRANSPIRATION =           7972.95
           STREAMFLOW =          92731.15             STREAMFLOW =           7469.23
     GW BOUNDARY FLOW =          10135.61       GW BOUNDARY FLOW =            724.11

   INFLOWS - OUTFLOWS =         400293.72     INFLOWS - OUTFLOWS =         148588.10
             --------                                   --------

 TOTAL STORAGE CHANGE =         400762.07         STORAGE CHANGE =         148623.34
       --------------                             --------------
         LAND SURFACE =         277689.24           LAND SURFACE =         136623.45
            SOIL ZONE =         436723.83              SOIL ZONE =          34108.04
     UNSATURATED ZONE =        -284617.09       UNSATURATED ZONE =         -19599.40
       SATURATED ZONE =         -29033.92         SATURATED ZONE =          -2508.74

 OVERALL BUDGET ERROR =           -468.35           BUDGET ERROR =            -35.24


  PERCENT DISCREPANCY =             -0.07    PERCENT DISCREPANCY =             -0.02



1
 SUMMARY VOLUMETRIC BUDGET FOR GSFLOW 
 DATE: 10 21 1980              CUMULATIVE TIME STEP:      21
 MODFLOW STRESS PERIOD      2     CURRENT TIME STEP:      21     ITERATIONS:       5

 -----------------------------------------------------------------------------------

   CUMULATIVE VOLUMES               L**3   RATES FOR THIS TIME STEP           L**3/T
   ------------------                      ------------------------

                                     IN                                         IN
                                     --                                         --
        PRECIPITATION =         733157.03          PRECIPITATION =                  
           STREAMFLOW =                               STREAMFLOW =                  
     GW BOUNDARY FLOW =                         GW BOUNDARY FLOW =                  


                                    OUT                                        OUT
                                    ---                                        ---
   EVAPOTRANSPIRATION =         375888.87     EVAPOTRANSPIRATION =          36804.76
           STREAMFLOW =         144621.09             STREAMFLOW =           7058.83
     GW BOUNDARY FLOW =          15203.74       GW BOUNDARY FLOW =            723.94

   INFLOWS - OUTFLOWS =         197443.33     INFLOWS - OUTFLOWS =         -44587.54
             --------                                   --------

 TOTAL STORAGE CHANGE =         198132.04         STORAGE CHANGE =         -44557.34
       --------------                             --------------
         LAND SURFACE =           2250.88           LAND SURFACE =          -3153.72
            SOIL ZONE =         662992.28              SOIL ZONE =         -19494.80
     UNSATURATED ZONE =        -418520.85       UNSATURATED ZONE =         -18753.74
       SATURATED ZONE =         -48590.27         SATURATED ZONE =          -3155.07

 OVERALL BUDGET ERROR =           -688.71           BUDGET ERROR =            -30.20


  PERCENT DISCREPANCY =             -0.09    PERCENT DISCREPANCY =             -0.07



1
 SUMMARY VOLUMETRIC BUDGET FOR GSFLOW 
 DATE: 10 28 1980              CUMULATIVE TIME STEP:      28
 MODFLOW STRESS PERIOD      2     CURRENT TIME STEP:      28     ITERATIONS:       5

 -----------------------------------------------------------------------------------

   CUMULATIVE VOLUMES               L**3   RATES FOR THIS TIME STEP           L**3/T
   ------------------                      ------------------------

                                     IN                                         IN
                                     --                                         --
        PRECIPITATION =        1070903.53          PRECIPITATION =                  
           STREAMFLOW =                               STREAMFLOW =                  
     GW BOUNDARY FLOW =                         GW BOUNDARY FLOW =                  


                                    OUT                                        OUT
                                    ---                                        ---
   EVAPOTRANSPIRATION =         556723.34     EVAPOTRANSPIRATION =          23594.60
           STREAMFLOW =         199389.07             STREAMFLOW =           8003.25
     GW BOUNDARY FLOW =          20271.41       GW BOUNDARY FLOW =            724.02

   INFLOWS - OUTFLOWS =         294519.71     INFLOWS - OUTFLOWS =         -32321.87
             --------                                   --------

 TOTAL STORAGE CHANGE =         295417.59         STORAGE CHANGE =         -32292.03
       --------------                             --------------
         LAND SURFACE =          24619.51           LAND SURFACE =         -30948.99
            SOIL ZONE =         889804.73              SOIL ZONE =          20239.30
     UNSATURATED ZONE =        -546588.13       UNSATURATED ZONE =         -17916.52
       SATURATED ZONE =         -72418.52         SATURATED ZONE =          -3665.82

 OVERALL BUDGET ERROR =           -897.88           BUDGET ERROR =            -29.85


  PERCENT DISCREPANCY =             -0.08    PERCENT DISCREPANCY =             -0.09



1
 SUMMARY VOLUMETRIC BUDGET FOR GSFLOW 
 DATE: 11 04 1980              CUMULATIVE TIME STEP:      35
 MODFLOW STRESS PERIOD      2     CURRENT TIME STEP:      35     ITERATIONS:       6

 -----------------------------------------------------------------------------------

   CUMULATIVE VOLUMES               L**3   RATES FOR THIS TIME STEP           L**3/T
   ------------------                      ------------------------

                                     IN                                         IN
                                     --                                         --
        PRECIPITATION =        1070903.53          PRECIPITATION =                  
           STREAMFLOW =                               STREAMFLOW =                  
     GW BOUNDARY FLOW =                         GW BOUNDARY FLOW =                  


                                    OUT                                        OUT
                                    ---                                        ---
   EVAPOTRANSPIRATION =         854398.20     EVAPOTRANSPIRATION =          38393.05
           STREAMFLOW =         252107.46             STREAMFLOW =           7055.64
     GW BOUNDARY FLOW =          25338.71       GW BOUNDARY FLOW =            723.81

   INFLOWS - OUTFLOWS =         -60940.84     INFLOWS - OUTFLOWS =         -46172.49
             --------                                   --------

 TOTAL STORAGE CHANGE =         -59842.81         STORAGE CHANGE =         -46146.08
       --------------                             --------------
         LAND SURFACE =                             LAND SURFACE =                  
            SOIL ZONE =         710477.68              SOIL ZONE =         -24522.38
     UNSATURATED ZONE =        -669479.92       UNSATURATED ZONE =         -17299.71
       SATURATED ZONE =        -100840.57         SATURATED ZONE =          -4324.00

 OVERALL BUDGET ERROR =          -1098.03           BUDGET ERROR =            -26.41


  PERCENT DISCREPANCY =             -0.10    PERCENT DISCREPANCY =             -0.06



1
 SUMMARY VOLUMETRIC BUDGET FOR GSFLOW 
 DATE: 11 11 1980              CUMULATIVE TIME STEP:      42
 MODFLOW STRESS PERIOD      2     CURRENT TIME STEP:      42     ITERATIONS:       5

 -----------------------------------------------------------------------------------

   CUMULATIVE VOLUMES               L**3   RATES FOR THIS TIME STEP           L**3/T
   ------------------                      ------------------------

                                     IN                                         IN
                                     --                                         --
        PRECIPITATION =        1573762.54          PRECIPITATION =         255182.19
           STREAMFLOW =                               STREAMFLOW =                  
     GW BOUNDARY FLOW =                         GW BOUNDARY FLOW =                  


                                    OUT                                        OUT
                                    ---                                        ---
   EVAPOTRANSPIRATION =        1065568.61     EVAPOTRANSPIRATION =          14936.69
           STREAMFLOW =         308219.50             STREAMFLOW =          10758.41
     GW BOUNDARY FLOW =          30405.65       GW BOUNDARY FLOW =            724.07

   INFLOWS - OUTFLOWS =         169568.78     INFLOWS - OUTFLOWS =         228763.01
             --------                                   --------

 TOTAL STORAGE CHANGE =         170868.04         STORAGE CHANGE =         228791.34
       --------------                             --------------
         LAND SURFACE =          78612.95           LAND SURFACE =          76659.87
            SOIL ZONE =        1011647.36              SOIL ZONE =         172703.55
     UNSATURATED ZONE =        -787591.94       UNSATURATED ZONE =         -16457.37
       SATURATED ZONE =        -131800.33         SATURATED ZONE =          -4114.70

 OVERALL BUDGET ERROR =          -1299.25           BUDGET ERROR =            -28.33


  PERCENT DISCREPANCY =             -0.08    PERCENT DISCREPANCY =             -0.01



1
 SUMMARY VOLUMETRIC BUDGET FOR GSFLOW 
 DATE: 11 18 1980              CUMULATIVE TIME STEP:      49
 MODFLOW STRESS PERIOD      2     CURRENT TIME STEP:      49     ITERATIONS:       5

 -----------------------------------------------------------------------------------

   CUMULATIVE VOLUMES               L**3   RATES FOR THIS TIME STEP           L**3/T
   ------------------                      ------------------------

                                     IN                                         IN
                                     --                                         --
        PRECIPITATION =        1573762.54          PRECIPITATION =                  
           STREAMFLOW =                               STREAMFLOW =                  
     GW BOUNDARY FLOW =                         GW BOUNDARY FLOW =                  


                                    OUT                                        OUT
                                    ---                                        ---
   EVAPOTRANSPIRATION =        1154160.90     EVAPOTRANSPIRATION =          16737.71
           STREAMFLOW =         371530.90             STREAMFLOW =           9404.65
     GW BOUNDARY FLOW =          35474.19       GW BOUNDARY FLOW =            724.11

   INFLOWS - OUTFLOWS =          12596.55     INFLOWS - OUTFLOWS =         -26866.48
             --------                                   --------

 TOTAL STORAGE CHANGE =          14091.41         STORAGE CHANGE =         -26838.85
       --------------                             --------------
         LAND SURFACE =           8654.86           LAND SURFACE =          -6203.23
            SOIL ZONE =        1071926.61              SOIL ZONE =            281.49
     UNSATURATED ZONE =        -900931.35       UNSATURATED ZONE =         -15938.40
       SATURATED ZONE =        -165558.71         SATURATED ZONE =          -4978.71

 OVERALL BUDGET ERROR =          -1494.85           BUDGET ERROR =            -27.63


  PERCENT DISCREPANCY =             -0.09    PERCENT DISCREPANCY =             -0.10



1
 SUMMARY VOLUMETRIC BUDGET FOR GSFLOW 
 DATE: 11 25 1980              CUMULATIVE TIME STEP:      56
 MODFLOW STRESS PERIOD      2     CURRENT TIME STEP:      56     ITERATIONS:       6

 -----------------------------------------------------------------------------------

   CUMULATIVE VOLUMES               L**3   RATES FOR THIS TIME STEP           L**3/T
   ------------------                      ------------------------

                                     IN                                         IN
                                     --                                         --
        PRECIPITATION =        1648816.13          PRECIPITATION =                  
           STREAMFLOW =                               STREAMFLOW =                  
     GW BOUNDARY FLOW =                         GW BOUNDARY FLOW =                  


                                    OUT                                        OUT
                                    ---                                        ---
   EVAPOTRANSPIRATION =        1229747.43     EVAPOTRANSPIRATION =           8792.74
           STREAMFLOW =         438835.61             STREAMFLOW =           9929.62
     GW BOUNDARY FLOW =          40543.26       GW BOUNDARY FLOW =            724.19

   INFLOWS - OUTFLOWS =         -60310.18     INFLOWS - OUTFLOWS =         -19446.56
             --------                                   --------

 TOTAL STORAGE CHANGE =         -58631.96         STORAGE CHANGE =         -19423.60
       --------------                             --------------
         LAND SURFACE =          55166.83           LAND SURFACE =          -8744.58
            SOIL ZONE =        1098907.39              SOIL ZONE =          10141.15
     UNSATURATED ZONE =       -1010096.04       UNSATURATED ZONE =         -15333.01
       SATURATED ZONE =        -202610.15         SATURATED ZONE =          -5487.17

 OVERALL BUDGET ERROR =          -1678.21           BUDGET ERROR =            -22.96


  PERCENT DISCREPANCY =             -0.10    PERCENT DISCREPANCY =             -0.12



1
 SUMMARY VOLUMETRIC BUDGET FOR GSFLOW 
 DATE: 12 02 1980              CUMULATIVE TIME STEP:      63
 MODFLOW STRESS PERIOD      2     CURRENT TIME STEP:      63     ITERATIONS:       5

 -----------------------------------------------------------------------------------

   CUMULATIVE VOLUMES               L**3   RATES FOR THIS TIME STEP           L**3/T
   ------------------                      ------------------------

                                     IN                                         IN
                                     --                                         --
        PRECIPITATION =        2076621.55          PRECIPITATION =                  
           STREAMFLOW =                               STREAMFLOW =                  
     GW BOUNDARY FLOW =                         GW BOUNDARY FLOW =                  


                                    OUT                                        OUT
                                    ---                                        ---
   EVAPOTRANSPIRATION =        1423312.57     EVAPOTRANSPIRATION =          34189.28
           STREAMFLOW =         523316.52             STREAMFLOW =          15097.56
     GW BOUNDARY FLOW =          45614.38       GW BOUNDARY FLOW =            724.83

   INFLOWS - OUTFLOWS =          84378.08     INFLOWS - OUTFLOWS =         -50011.68
             --------                                   --------

 TOTAL STORAGE CHANGE =          86240.32         STORAGE CHANGE =         -49984.57
       --------------                             --------------
         LAND SURFACE =         152551.10           LAND SURFACE =         -75205.42
            SOIL ZONE =        1284270.97              SOIL ZONE =          42824.19
     UNSATURATED ZONE =       -1111074.06       UNSATURATED ZONE =         -12900.15
       SATURATED ZONE =        -239507.69         SATURATED ZONE =          -4703.18

 OVERALL BUDGET ERROR =          -1862.24           BUDGET ERROR =            -27.11


  PERCENT DISCREPANCY =             -0.09    PERCENT DISCREPANCY =             -0.05



1
 SUMMARY VOLUMETRIC BUDGET FOR GSFLOW 
 DATE: 12 09 1980              CUMULATIVE TIME STEP:      70
 MODFLOW STRESS PERIOD      2     CURRENT TIME STEP:      70     ITERATIONS:       5

 -----------------------------------------------------------------------------------

   CUMULATIVE VOLUMES               L**3   RATES FOR THIS TIME STEP           L**3/T
   ------------------                      ------------------------

                                     IN                                         IN
                                     --                                         --
        PRECIPITATION =        4284363.63          PRECIPITATION =                  
           STREAMFLOW =                               STREAMFLOW =                  
     GW BOUNDARY FLOW =                         GW BOUNDARY FLOW =                  


                                    OUT                                        OUT
                                    ---                                        ---
   EVAPOTRANSPIRATION =        1446730.93     EVAPOTRANSPIRATION =           2942.43
           STREAMFLOW =         621681.07             STREAMFLOW =          14306.99
     GW BOUNDARY FLOW =          50688.92       GW BOUNDARY FLOW =            725.02

   INFLOWS - OUTFLOWS =        2165262.71     INFLOWS - OUTFLOWS =         -17974.44
             --------                                   --------

 TOTAL STORAGE CHANGE =        2167304.95         STORAGE CHANGE =         -17947.95
       --------------                             --------------
         LAND SURFACE =        2335216.87           LAND SURFACE =          -2942.43
            SOIL ZONE =        1320677.59              SOIL ZONE =           5267.45
     UNSATURATED ZONE =       -1208777.22       UNSATURATED ZONE =         -14158.47
       SATURATED ZONE =        -279812.29         SATURATED ZONE =          -6114.50

 OVERALL BUDGET ERROR =          -2042.24           BUDGET ERROR =            -26.50


  PERCENT DISCREPANCY =             -0.05    PERCENT DISCREPANCY =             -0.15



1
 SUMMARY VOLUMETRIC BUDGET FOR GSFLOW 
 DATE: 12 16 1980              CUMULATIVE TIME STEP:      77
 MODFLOW STRESS PERIOD      2     CURRENT TIME STEP:      77     ITERATIONS:       5

 -----------------------------------------------------------------------------------

   CUMULATIVE VOLUMES               L**3   RATES FOR THIS TIME STEP           L**3/T
   ------------------                      ------------------------

                                     IN                                         IN
                                     --                                         --
        PRECIPITATION =        4284363.63          PRECIPITATION =                  
           STREAMFLOW =                               STREAMFLOW =                  
     GW BOUNDARY FLOW =                         GW BOUNDARY FLOW =                  


                                    OUT                                        OUT
                                    ---                                        ---
   EVAPOTRANSPIRATION =        1588730.28     EVAPOTRANSPIRATION =          33888.80
           STREAMFLOW =         740195.56             STREAMFLOW =          24561.79
     GW BOUNDARY FLOW =          55765.92       GW BOUNDARY FLOW =            725.87

   INFLOWS - OUTFLOWS =        1899671.87     INFLOWS - OUTFLOWS =         -59176.46
             --------                                   --------

 TOTAL STORAGE CHANGE =        1901886.86         STORAGE CHANGE =         -59149.78
       --------------                             --------------
         LAND SURFACE =        2023939.67           LAND SURFACE =        -129021.52
            SOIL ZONE =        1497285.83              SOIL ZONE =          83535.76
     UNSATURATED ZONE =       -1298202.72       UNSATURATED ZONE =          -9035.10
       SATURATED ZONE =        -321135.92         SATURATED ZONE =          -4628.91

 OVERALL BUDGET ERROR =          -2215.00           BUDGET ERROR =            -26.69


  PERCENT DISCREPANCY =             -0.05    PERCENT DISCREPANCY =             -0.05



1
 SUMMARY VOLUMETRIC BUDGET FOR GSFLOW 
 DATE: 12 23 1980              CUMULATIVE TIME STEP:      84
 MODFLOW STRESS PERIOD      2     CURRENT TIME STEP:      84     ITERATIONS:       6

 -----------------------------------------------------------------------------------

   CUMULATIVE VOLUMES               L**3   RATES FOR THIS TIME STEP           L**3/T
   ------------------                      ------------------------

                                     IN                                         IN
                                     --                                         --
        PRECIPITATION =        4516757.54          PRECIPITATION =                  
           STREAMFLOW =                               STREAMFLOW =                  
     GW BOUNDARY FLOW =                         GW BOUNDARY FLOW =                  


                                    OUT                                        OUT
                                    ---                                        ---
   EVAPOTRANSPIRATION =        1794694.91     EVAPOTRANSPIRATION =          35140.32
           STREAMFLOW =         965303.29             STREAMFLOW =          30122.35
     GW BOUNDARY FLOW =          60857.91       GW BOUNDARY FLOW =            728.04

   INFLOWS - OUTFLOWS =        1695901.43     INFLOWS - OUTFLOWS =         -65990.71
             --------                                   --------

 TOTAL STORAGE CHANGE =        1698267.86         STORAGE CHANGE =         -65972.75
       --------------                             --------------
         LAND SURFACE =        1430957.88           LAND SURFACE =         -48071.88
            SOIL ZONE =        1957362.00              SOIL ZONE =          -7164.07
     UNSATURATED ZONE =       -1340118.35       UNSATURATED ZONE =          -5999.09
       SATURATED ZONE =        -349933.68         SATURATED ZONE =          -4737.71

 OVERALL BUDGET ERROR =          -2366.43           BUDGET ERROR =            -17.96


  PERCENT DISCREPANCY =             -0.05    PERCENT DISCREPANCY =             -0.03



1
 SUMMARY VOLUMETRIC BUDGET FOR GSFLOW 
 DATE: 12 30 1980              CUMULATIVE TIME STEP:      91
 MODFLOW STRESS PERIOD      2     CURRENT TIME STEP:      91     ITERATIONS:       7

 -----------------------------------------------------------------------------------

   CUMULATIVE VOLUMES               L**3   RATES FOR THIS TIME STEP           L**3/T
   ------------------                      ------------------------

                                     IN                                         IN
                                     --                                         --
        PRECIPITATION =        4516757.54          PRECIPITATION =                  
           STREAMFLOW =                               STREAMFLOW =                  
     GW BOUNDARY FLOW =                         GW BOUNDARY FLOW =                  


                                    OUT                                        OUT
                                    ---                                        ---
   EVAPOTRANSPIRATION =        2155472.40     EVAPOTRANSPIRATION =          45891.07
           STREAMFLOW =        1206912.19             STREAMFLOW =          26720.09
     GW BOUNDARY FLOW =          65958.38       GW BOUNDARY FLOW =            728.54

   INFLOWS - OUTFLOWS =        1088414.57     INFLOWS - OUTFLOWS =         -73339.70
             --------                                   --------

 TOTAL STORAGE CHANGE =        1090881.11         STORAGE CHANGE =         -73327.45
       --------------                             --------------
         LAND SURFACE =         640989.37           LAND SURFACE =         -40317.72
            SOIL ZONE =        2180470.73              SOIL ZONE =         -23693.84
     UNSATURATED ZONE =       -1355261.98       UNSATURATED ZONE =          -5260.29
       SATURATED ZONE =        -375317.00         SATURATED ZONE =          -4055.60

 OVERALL BUDGET ERROR =          -2466.54           BUDGET ERROR =            -12.25


  PERCENT DISCREPANCY =             -0.05    PERCENT DISCREPANCY =             -0.02



1
 SUMMARY VOLUMETRIC BUDGET FOR GSFLOW 
 DATE: 01 06 1981              CUMULATIVE TIME STEP:      98
 MODFLOW STRESS PERIOD      2     CURRENT TIME STEP:      98     ITERATIONS:       6

 -----------------------------------------------------------------------------------

   CUMULATIVE VOLUMES               L**3   RATES FOR THIS TIME STEP           L**3/T
   ------------------                      ------------------------

                                     IN                                         IN
                                     --                                         --
        PRECIPITATION =        5004445.43          PRECIPITATION =                  
           STREAMFLOW =                               STREAMFLOW =                  
     GW BOUNDARY FLOW =                         GW BOUNDARY FLOW =                  


                                    OUT                                        OUT
                                    ---                                        ---
   EVAPOTRANSPIRATION =        2383399.58     EVAPOTRANSPIRATION =          21388.78
           STREAMFLOW =        1359558.15             STREAMFLOW =          21062.79
     GW BOUNDARY FLOW =          71051.66       GW BOUNDARY FLOW =            727.11

   INFLOWS - OUTFLOWS =        1190436.04     INFLOWS - OUTFLOWS =         -43178.68
             --------                                   --------

 TOTAL STORAGE CHANGE =        1192995.75         STORAGE CHANGE =         -43165.23
       --------------                             --------------
         LAND SURFACE =         837080.27           LAND SURFACE =         -30417.06
            SOIL ZONE =        2190949.25              SOIL ZONE =           3052.75
     UNSATURATED ZONE =       -1421000.33       UNSATURATED ZONE =          -9854.35
       SATURATED ZONE =        -414033.44         SATURATED ZONE =          -5946.57

 OVERALL BUDGET ERROR =          -2559.71           BUDGET ERROR =            -13.45


  PERCENT DISCREPANCY =             -0.05    PERCENT DISCREPANCY =             -0.03



1
 SUMMARY VOLUMETRIC BUDGET FOR GSFLOW 
 DATE: 01 13 1981              CUMULATIVE TIME STEP:     105
 MODFLOW STRESS PERIOD      2     CURRENT TIME STEP:     105     ITERATIONS:       6

 -----------------------------------------------------------------------------------

   CUMULATIVE VOLUMES               L**3   RATES FOR THIS TIME STEP           L**3/T
   ------------------                      ------------------------

                                     IN                                         IN
                                     --                                         --
        PRECIPITATION =        5004445.43          PRECIPITATION =                  
           STREAMFLOW =                               STREAMFLOW =                  
     GW BOUNDARY FLOW =                         GW BOUNDARY FLOW =                  


                                    OUT                                        OUT
                                    ---                                        ---
   EVAPOTRANSPIRATION =        2600912.23     EVAPOTRANSPIRATION =          44455.00
           STREAMFLOW =        1506458.71             STREAMFLOW =          19889.38
     GW BOUNDARY FLOW =          76139.17       GW BOUNDARY FLOW =            726.55

   INFLOWS - OUTFLOWS =         820935.32     INFLOWS - OUTFLOWS =         -65070.93
             --------                                   --------

 TOTAL STORAGE CHANGE =         823606.16         STORAGE CHANGE =         -65056.96
       --------------                             --------------
         LAND SURFACE =         626702.00           LAND SURFACE =         -38991.59
            SOIL ZONE =        2140779.88              SOIL ZONE =         -10361.66
     UNSATURATED ZONE =       -1485711.62       UNSATURATED ZONE =          -9153.66
       SATURATED ZONE =        -458164.10         SATURATED ZONE =          -6550.06

 OVERALL BUDGET ERROR =          -2670.84           BUDGET ERROR =            -13.97


  PERCENT DISCREPANCY =             -0.05    PERCENT DISCREPANCY =             -0.02



1
 SUMMARY VOLUMETRIC BUDGET FOR GSFLOW 
 DATE: 01 20 1981              CUMULATIVE TIME STEP:     112
 MODFLOW STRESS PERIOD      2     CURRENT TIME STEP:     112     ITERATIONS:       6

 -----------------------------------------------------------------------------------

   CUMULATIVE VOLUMES               L**3   RATES FOR THIS TIME STEP           L**3/T
   ------------------                      ------------------------

                                     IN                                         IN
                                     --                                         --
        PRECIPITATION =        5170466.84          PRECIPITATION =          41505.35
           STREAMFLOW =                               STREAMFLOW =                  
     GW BOUNDARY FLOW =                         GW BOUNDARY FLOW =                  


                                    OUT                                        OUT
                                    ---                                        ---
   EVAPOTRANSPIRATION =        2883185.23     EVAPOTRANSPIRATION =          35211.68
           STREAMFLOW =        1648041.50             STREAMFLOW =          19998.51
     GW BOUNDARY FLOW =          81224.13       GW BOUNDARY FLOW =            726.36

   INFLOWS - OUTFLOWS =         558015.98     INFLOWS - OUTFLOWS =         -14431.20
             --------                                   --------

 TOTAL STORAGE CHANGE =         560783.12         STORAGE CHANGE =         -14417.15
       --------------                             --------------
         LAND SURFACE =         436285.42           LAND SURFACE =           4326.68
            SOIL ZONE =        2147776.18              SOIL ZONE =          -9996.91
     UNSATURATED ZONE =       -1518156.86       UNSATURATED ZONE =          -1867.27
       SATURATED ZONE =        -505121.62         SATURATED ZONE =          -6879.65

 OVERALL BUDGET ERROR =          -2767.14           BUDGET ERROR =            -14.05


  PERCENT DISCREPANCY =             -0.05    PERCENT DISCREPANCY =             -0.03



1
 SUMMARY VOLUMETRIC BUDGET FOR GSFLOW 
 DATE: 01 27 1981              CUMULATIVE TIME STEP:     119
 MODFLOW STRESS PERIOD      2     CURRENT TIME STEP:     119     ITERATIONS:       6

 -----------------------------------------------------------------------------------

   CUMULATIVE VOLUMES               L**3   RATES FOR THIS TIME STEP           L**3/T
   ------------------                      ------------------------

                                     IN                                         IN
                                     --                                         --
        PRECIPITATION =        8646540.08          PRECIPITATION =        2936503.63
           STREAMFLOW =                               STREAMFLOW =                  
     GW BOUNDARY FLOW =                         GW BOUNDARY FLOW =                  


                                    OUT                                        OUT
                                    ---                                        ---
   EVAPOTRANSPIRATION =        3117715.64     EVAPOTRANSPIRATION =          13120.97
           STREAMFLOW =        1792768.74             STREAMFLOW =          18589.15
     GW BOUNDARY FLOW =          86308.40       GW BOUNDARY FLOW =            726.09

   INFLOWS - OUTFLOWS =        3649747.30     INFLOWS - OUTFLOWS =        2904067.43
             --------                                   --------

 TOTAL STORAGE CHANGE =        3652587.79         STORAGE CHANGE =        2904077.74
       --------------                             --------------
         LAND SURFACE =        3540180.85           LAND SURFACE =        2923352.24
            SOIL ZONE =        2170630.13              SOIL ZONE =          -7538.72
     UNSATURATED ZONE =       -1506297.59       UNSATURATED ZONE =          -4600.74
       SATURATED ZONE =        -551925.60         SATURATED ZONE =          -7135.04

 OVERALL BUDGET ERROR =          -2840.49           BUDGET ERROR =            -10.31


  PERCENT DISCREPANCY =             -0.03    PERCENT DISCREPANCY =             -0.00



1
 SUMMARY VOLUMETRIC BUDGET FOR GSFLOW 
 DATE: 02 03 1981              CUMULATIVE TIME STEP:     126
 MODFLOW STRESS PERIOD      2     CURRENT TIME STEP:     126     ITERATIONS:       7

 -----------------------------------------------------------------------------------

   CUMULATIVE VOLUMES               L**3   RATES FOR THIS TIME STEP           L**3/T
   ------------------                      ------------------------

                                     IN                                         IN
                                     --                                         --
        PRECIPITATION =        1.1739D+07          PRECIPITATION =                  
           STREAMFLOW =                               STREAMFLOW =                  
     GW BOUNDARY FLOW =                         GW BOUNDARY FLOW =                  


                                    OUT                                        OUT
                                    ---                                        ---
   EVAPOTRANSPIRATION =        3154228.68     EVAPOTRANSPIRATION =           6975.48
           STREAMFLOW =        1918857.15             STREAMFLOW =          17907.40
     GW BOUNDARY FLOW =          91389.73       GW BOUNDARY FLOW =            725.83

   INFLOWS - OUTFLOWS =        6574213.20     INFLOWS - OUTFLOWS =         -25608.72
             --------                                   --------

 TOTAL STORAGE CHANGE =        6577128.49         STORAGE CHANGE =         -25600.15
       --------------                             --------------
         LAND SURFACE =        6595816.50           LAND SURFACE =          -6975.48
            SOIL ZONE =        2159899.31              SOIL ZONE =            518.12
     UNSATURATED ZONE =       -1573065.63       UNSATURATED ZONE =         -11223.16
       SATURATED ZONE =        -605521.69         SATURATED ZONE =          -7919.62

 OVERALL BUDGET ERROR =          -2915.29           BUDGET ERROR =             -8.57


  PERCENT DISCREPANCY =             -0.02    PERCENT DISCREPANCY =             -0.03



1
 SUMMARY VOLUMETRIC BUDGET FOR GSFLOW 
 DATE: 02 10 1981              CUMULATIVE TIME STEP:     133
 MODFLOW STRESS PERIOD      2     CURRENT TIME STEP:     133     ITERATIONS:       5

 -----------------------------------------------------------------------------------

   CUMULATIVE VOLUMES               L**3   RATES FOR THIS TIME STEP           L**3/T
   ------------------                      ------------------------

                                     IN                                         IN
                                     --                                         --
        PRECIPITATION =        1.1838D+07          PRECIPITATION =                  
           STREAMFLOW =                               STREAMFLOW =                  
     GW BOUNDARY FLOW =                         GW BOUNDARY FLOW =                  


                                    OUT                                        OUT
                                    ---                                        ---
   EVAPOTRANSPIRATION =        3279629.75     EVAPOTRANSPIRATION =          32880.06
           STREAMFLOW =        2044442.53             STREAMFLOW =          17966.53
     GW BOUNDARY FLOW =          96470.60       GW BOUNDARY FLOW =            725.83

   INFLOWS - OUTFLOWS =        6417710.40     INFLOWS - OUTFLOWS =         -51572.42
             --------                                   --------

 TOTAL STORAGE CHANGE =        6420722.98         STORAGE CHANGE =         -51553.84
       --------------                             --------------
         LAND SURFACE =        6569979.95           LAND SURFACE =         -32880.06
            SOIL ZONE =        2164319.07              SOIL ZONE =            614.11
     UNSATURATED ZONE =       -1649485.14       UNSATURATED ZONE =         -10563.15
       SATURATED ZONE =        -664090.89         SATURATED ZONE =          -8724.74

 OVERALL BUDGET ERROR =          -3012.58           BUDGET ERROR =            -18.58


  PERCENT DISCREPANCY =             -0.03    PERCENT DISCREPANCY =             -0.04



1
 SUMMARY VOLUMETRIC BUDGET FOR GSFLOW 
 DATE: 02 17 1981              CUMULATIVE TIME STEP:     140
 MODFLOW STRESS PERIOD      2     CURRENT TIME STEP:     140     ITERATIONS:      10

 -----------------------------------------------------------------------------------

   CUMULATIVE VOLUMES               L**3   RATES FOR THIS TIME STEP           L**3/T
   ------------------                      ------------------------

                                     IN                                         IN
                                     --                                         --
        PRECIPITATION =        1.2765D+07          PRECIPITATION =          68929.28
           STREAMFLOW =                               STREAMFLOW =                  
     GW BOUNDARY FLOW =                         GW BOUNDARY FLOW =                  


                                    OUT                                        OUT
                                    ---                                        ---
   EVAPOTRANSPIRATION =        3617727.54     EVAPOTRANSPIRATION =          68607.56
           STREAMFLOW =        2584048.51             STREAMFLOW =         124492.79
     GW BOUNDARY FLOW =         101579.95       GW BOUNDARY FLOW =            734.46

   INFLOWS - OUTFLOWS =        6461613.10     INFLOWS - OUTFLOWS =        -124905.53
             --------                                   --------

 TOTAL STORAGE CHANGE =        6464731.99         STORAGE CHANGE =        -124892.55
       --------------                             --------------
         LAND SURFACE =        5590061.12           LAND SURFACE =        -278671.93
            SOIL ZONE =        2956995.71              SOIL ZONE =          71824.13
     UNSATURATED ZONE =       -1400823.32       UNSATURATED ZONE =          79577.12
       SATURATED ZONE =        -681501.52         SATURATED ZONE =           2378.13

 OVERALL BUDGET ERROR =          -3118.89           BUDGET ERROR =            -12.98


  PERCENT DISCREPANCY =             -0.02    PERCENT DISCREPANCY =             -0.01



1
 SUMMARY VOLUMETRIC BUDGET FOR GSFLOW 
 DATE: 02 24 1981              CUMULATIVE TIME STEP:     147
 MODFLOW STRESS PERIOD      2     CURRENT TIME STEP:     147     ITERATIONS:       9

 -----------------------------------------------------------------------------------

   CUMULATIVE VOLUMES               L**3   RATES FOR THIS TIME STEP           L**3/T
   ------------------                      ------------------------

                                     IN                                         IN
                                     --                                         --
        PRECIPITATION =        1.3179D+07          PRECIPITATION =         344646.37
           STREAMFLOW =                               STREAMFLOW =                  
     GW BOUNDARY FLOW =                         GW BOUNDARY FLOW =                  


                                    OUT                                        OUT
                                    ---                                        ---
   EVAPOTRANSPIRATION =        3959049.13     EVAPOTRANSPIRATION =          18832.76
           STREAMFLOW =        3139327.18             STREAMFLOW =          51788.82
     GW BOUNDARY FLOW =         106714.54       GW BOUNDARY FLOW =            732.09

   INFLOWS - OUTFLOWS =        5973453.90     INFLOWS - OUTFLOWS =         273292.70
             --------                                   --------

 TOTAL STORAGE CHANGE =        5976603.47         STORAGE CHANGE =         273294.18
       --------------                             --------------
         LAND SURFACE =        4984244.22           LAND SURFACE =         286368.61
            SOIL ZONE =        2695035.77              SOIL ZONE =         -43260.38
     UNSATURATED ZONE =       -1045978.06       UNSATURATED ZONE =          27605.01
       SATURATED ZONE =        -656698.46         SATURATED ZONE =           2580.94

 OVERALL BUDGET ERROR =          -3149.57           BUDGET ERROR =             -1.48


  PERCENT DISCREPANCY =             -0.02    PERCENT DISCREPANCY =             -0.00



1
 SUMMARY VOLUMETRIC BUDGET FOR GSFLOW 
 DATE: 03 03 1981              CUMULATIVE TIME STEP:     154
 MODFLOW STRESS PERIOD      2     CURRENT TIME STEP:     154     ITERATIONS:       8

 -----------------------------------------------------------------------------------

   CUMULATIVE VOLUMES               L**3   RATES FOR THIS TIME STEP           L**3/T
   ------------------                      ------------------------

                                     IN                                         IN
                                     --                                         --
        PRECIPITATION =        1.3447D+07          PRECIPITATION =                  
           STREAMFLOW =                               STREAMFLOW =                  
     GW BOUNDARY FLOW =                         GW BOUNDARY FLOW =                  


                                    OUT                                        OUT
                                    ---                                        ---
   EVAPOTRANSPIRATION =        4119731.86     EVAPOTRANSPIRATION =          45353.75
           STREAMFLOW =        3362488.83             STREAMFLOW =          27720.84
     GW BOUNDARY FLOW =         111822.30       GW BOUNDARY FLOW =            728.46

   INFLOWS - OUTFLOWS =        5852560.04     INFLOWS - OUTFLOWS =         -73803.05
             --------                                   --------

 TOTAL STORAGE CHANGE =        5855669.41         STORAGE CHANGE =         -73807.88
       --------------                             --------------
         LAND SURFACE =        5068137.31           LAND SURFACE =         -66041.98
            SOIL ZONE =        2487612.58              SOIL ZONE =           2891.87
     UNSATURATED ZONE =       -1039718.98       UNSATURATED ZONE =          -8744.52
       SATURATED ZONE =        -660361.49         SATURATED ZONE =          -1913.26

 OVERALL BUDGET ERROR =          -3109.36           BUDGET ERROR =              4.83


  PERCENT DISCREPANCY =             -0.02    PERCENT DISCREPANCY =              0.01



1
 SUMMARY VOLUMETRIC BUDGET FOR GSFLOW 
 DATE: 03 10 1981              CUMULATIVE TIME STEP:     161
 MODFLOW STRESS PERIOD      2     CURRENT TIME STEP:     161     ITERATIONS:       7

 -----------------------------------------------------------------------------------

   CUMULATIVE VOLUMES               L**3   RATES FOR THIS TIME STEP           L**3/T
   ------------------                      ------------------------

                                     IN                                         IN
                                     --                                         --
        PRECIPITATION =        1.3493D+07          PRECIPITATION =                  
           STREAMFLOW =                               STREAMFLOW =                  
     GW BOUNDARY FLOW =                         GW BOUNDARY FLOW =                  


                                    OUT                                        OUT
                                    ---                                        ---
   EVAPOTRANSPIRATION =        4465521.44     EVAPOTRANSPIRATION =          72811.00
           STREAMFLOW =        3597817.49             STREAMFLOW =          43442.21
     GW BOUNDARY FLOW =         116921.23       GW BOUNDARY FLOW =            729.25

   INFLOWS - OUTFLOWS =        5312681.00     INFLOWS - OUTFLOWS =        -116982.46
             --------                                   --------

 TOTAL STORAGE CHANGE =        5315776.36         STORAGE CHANGE =        -116983.72
       --------------                             --------------
         LAND SURFACE =        4391652.97           LAND SURFACE =        -169089.79
            SOIL ZONE =        2600918.04              SOIL ZONE =          28926.60
     UNSATURATED ZONE =       -1005089.35       UNSATURATED ZONE =          23705.94
       SATURATED ZONE =        -671705.31         SATURATED ZONE =           -526.47

 OVERALL BUDGET ERROR =          -3095.37           BUDGET ERROR =              1.26


  PERCENT DISCREPANCY =             -0.02    PERCENT DISCREPANCY =              0.00



1
 SUMMARY VOLUMETRIC BUDGET FOR GSFLOW 
 DATE: 03 17 1981              CUMULATIVE TIME STEP:     168
 MODFLOW STRESS PERIOD      2     CURRENT TIME STEP:     168     ITERATIONS:       6

 -----------------------------------------------------------------------------------

   CUMULATIVE VOLUMES               L**3   RATES FOR THIS TIME STEP           L**3/T
   ------------------                      ------------------------

                                     IN                                         IN
                                     --                                         --
        PRECIPITATION =        1.3744D+07          PRECIPITATION =                  
           STREAMFLOW =                               STREAMFLOW =                  
     GW BOUNDARY FLOW =                         GW BOUNDARY FLOW =                  


                                    OUT                                        OUT
                                    ---                                        ---
   EVAPOTRANSPIRATION =        4833931.20     EVAPOTRANSPIRATION =          40234.36
           STREAMFLOW =        3824005.03             STREAMFLOW =          24094.66
     GW BOUNDARY FLOW =         122022.12       GW BOUNDARY FLOW =            727.93

   INFLOWS - OUTFLOWS =        4964532.54     INFLOWS - OUTFLOWS =         -65056.96
             --------                                   --------

 TOTAL STORAGE CHANGE =        4967605.97         STORAGE CHANGE =         -65054.34
       --------------                             --------------
         LAND SURFACE =        4202420.68           LAND SURFACE =         -39897.13
            SOIL ZONE =        2436113.81              SOIL ZONE =          -5350.68
     UNSATURATED ZONE =        -981522.85       UNSATURATED ZONE =         -15584.00
       SATURATED ZONE =        -689405.66         SATURATED ZONE =          -4222.54

 OVERALL BUDGET ERROR =          -3073.43           BUDGET ERROR =             -2.62


  PERCENT DISCREPANCY =             -0.02    PERCENT DISCREPANCY =             -0.00



1
 SUMMARY VOLUMETRIC BUDGET FOR GSFLOW 
 DATE: 03 24 1981              CUMULATIVE TIME STEP:     175
 MODFLOW STRESS PERIOD      2     CURRENT TIME STEP:     175     ITERATIONS:       6

 -----------------------------------------------------------------------------------

   CUMULATIVE VOLUMES               L**3   RATES FOR THIS TIME STEP           L**3/T
   ------------------                      ------------------------

                                     IN                                         IN
                                     --                                         --
        PRECIPITATION =        1.4367D+07          PRECIPITATION =                  
           STREAMFLOW =                               STREAMFLOW =                  
     GW BOUNDARY FLOW =                         GW BOUNDARY FLOW =                  


                                    OUT                                        OUT
                                    ---                                        ---
   EVAPOTRANSPIRATION =        5189708.53     EVAPOTRANSPIRATION =          87428.11
           STREAMFLOW =        3999641.52             STREAMFLOW =          26769.71
     GW BOUNDARY FLOW =         127114.23       GW BOUNDARY FLOW =            727.40

   INFLOWS - OUTFLOWS =        5050281.24     INFLOWS - OUTFLOWS =        -114925.22
             --------                                   --------

 TOTAL STORAGE CHANGE =        5053390.39         STORAGE CHANGE =        -114922.03
       --------------                             --------------
         LAND SURFACE =        4477696.13           LAND SURFACE =         -65035.10
            SOIL ZONE =        2348906.89              SOIL ZONE =         -41067.09
     UNSATURATED ZONE =       -1049003.54       UNSATURATED ZONE =          -3551.98
       SATURATED ZONE =        -724209.10         SATURATED ZONE =          -5267.87

 OVERALL BUDGET ERROR =          -3109.15           BUDGET ERROR =             -3.19


  PERCENT DISCREPANCY =             -0.02    PERCENT DISCREPANCY =             -0.00



1
 SUMMARY VOLUMETRIC BUDGET FOR GSFLOW 
 DATE: 03 31 1981              CUMULATIVE TIME STEP:     182
 MODFLOW STRESS PERIOD      2     CURRENT TIME STEP:     182     ITERATIONS:       8

 -----------------------------------------------------------------------------------

   CUMULATIVE VOLUMES               L**3   RATES FOR THIS TIME STEP           L**3/T
   ------------------                      ------------------------

                                     IN                                         IN
                                     --                                         --
        PRECIPITATION =        1.5777D+07          PRECIPITATION =                  
           STREAMFLOW =                               STREAMFLOW =                  
     GW BOUNDARY FLOW =                         GW BOUNDARY FLOW =                  


                                    OUT                                        OUT
                                    ---                                        ---
   EVAPOTRANSPIRATION =        5619645.92     EVAPOTRANSPIRATION =          54090.27
           STREAMFLOW =        4506570.14             STREAMFLOW =          36966.17
     GW BOUNDARY FLOW =         132234.56       GW BOUNDARY FLOW =            730.25

   INFLOWS - OUTFLOWS =        5518297.37     INFLOWS - OUTFLOWS =         -91786.69
             --------                                   --------

 TOTAL STORAGE CHANGE =        5521396.20         STORAGE CHANGE =         -91795.85
       --------------                             --------------
         LAND SURFACE =        4494242.72           LAND SURFACE =         -55488.75
            SOIL ZONE =        2545326.48              SOIL ZONE =         -41656.55
     UNSATURATED ZONE =        -800631.60       UNSATURATED ZONE =           6335.42
       SATURATED ZONE =        -717541.41         SATURATED ZONE =           -985.96

 OVERALL BUDGET ERROR =          -3098.83           BUDGET ERROR =              9.16


  PERCENT DISCREPANCY =             -0.02    PERCENT DISCREPANCY =              0.01



1
 SUMMARY VOLUMETRIC BUDGET FOR GSFLOW 
 DATE: 04 07 1981              CUMULATIVE TIME STEP:     189
 MODFLOW STRESS PERIOD      2     CURRENT TIME STEP:     189     ITERATIONS:       7

 -----------------------------------------------------------------------------------

   CUMULATIVE VOLUMES               L**3   RATES FOR THIS TIME STEP           L**3/T
   ------------------                      ------------------------

                                     IN                                         IN
                                     --                                         --
        PRECIPITATION =        1.6121D+07          PRECIPITATION =                  
           STREAMFLOW =                               STREAMFLOW =                  
     GW BOUNDARY FLOW =                         GW BOUNDARY FLOW =                  


                                    OUT                                        OUT
                                    ---                                        ---
   EVAPOTRANSPIRATION =        6245712.16     EVAPOTRANSPIRATION =         103845.38
           STREAMFLOW =        4823661.26             STREAMFLOW =          43223.05
     GW BOUNDARY FLOW =         137345.98       GW BOUNDARY FLOW =            730.43

   INFLOWS - OUTFLOWS =        4914748.20     INFLOWS - OUTFLOWS =        -147798.86
             --------                                   --------

 TOTAL STORAGE CHANGE =        4917805.71         STORAGE CHANGE =        -147805.30
       --------------                             --------------
         LAND SURFACE =        3870170.37           LAND SURFACE =        -138668.80
            SOIL ZONE =        2476740.55              SOIL ZONE =         -20332.07
     UNSATURATED ZONE =        -713771.46       UNSATURATED ZONE =          11412.87
       SATURATED ZONE =        -715333.76         SATURATED ZONE =           -217.31

 OVERALL BUDGET ERROR =          -3057.50           BUDGET ERROR =              6.44


  PERCENT DISCREPANCY =             -0.02    PERCENT DISCREPANCY =              0.00



1
 SUMMARY VOLUMETRIC BUDGET FOR GSFLOW 
 DATE: 04 14 1981              CUMULATIVE TIME STEP:     196
 MODFLOW STRESS PERIOD      2     CURRENT TIME STEP:     196     ITERATIONS:       9

 -----------------------------------------------------------------------------------

   CUMULATIVE VOLUMES               L**3   RATES FOR THIS TIME STEP           L**3/T
   ------------------                      ------------------------

                                     IN                                         IN
                                     --                                         --
        PRECIPITATION =        1.6121D+07          PRECIPITATION =                  
           STREAMFLOW =                               STREAMFLOW =                  
     GW BOUNDARY FLOW =                         GW BOUNDARY FLOW =                  


                                    OUT                                        OUT
                                    ---                                        ---
   EVAPOTRANSPIRATION =        7156401.68     EVAPOTRANSPIRATION =         191911.71
           STREAMFLOW =        5149345.51             STREAMFLOW =          55195.32
     GW BOUNDARY FLOW =         142457.93       GW BOUNDARY FLOW =            730.39

   INFLOWS - OUTFLOWS =        3673262.48     INFLOWS - OUTFLOWS =        -247837.42
             --------                                   --------

 TOTAL STORAGE CHANGE =        3676311.79         STORAGE CHANGE =        -247837.02
       --------------                             --------------
         LAND SURFACE =        2621455.97           LAND SURFACE =        -253007.68
            SOIL ZONE =        2385188.32              SOIL ZONE =         -16845.13
     UNSATURATED ZONE =        -619954.76       UNSATURATED ZONE =          20166.97
       SATURATED ZONE =        -710377.74         SATURATED ZONE =           1848.82

 OVERALL BUDGET ERROR =          -3049.31           BUDGET ERROR =             -0.41


  PERCENT DISCREPANCY =             -0.02    PERCENT DISCREPANCY =             -0.00



1
 SUMMARY VOLUMETRIC BUDGET FOR GSFLOW 
 DATE: 04 21 1981              CUMULATIVE TIME STEP:     203
 MODFLOW STRESS PERIOD      2     CURRENT TIME STEP:     203     ITERATIONS:       9

 -----------------------------------------------------------------------------------

   CUMULATIVE VOLUMES               L**3   RATES FOR THIS TIME STEP           L**3/T
   ------------------                      ------------------------

                                     IN                                         IN
                                     --                                         --
        PRECIPITATION =        1.6310D+07          PRECIPITATION =                  
           STREAMFLOW =                               STREAMFLOW =                  
     GW BOUNDARY FLOW =                         GW BOUNDARY FLOW =                  


                                    OUT                                        OUT
                                    ---                                        ---
   EVAPOTRANSPIRATION =        8226344.07     EVAPOTRANSPIRATION =         151397.46
           STREAMFLOW =        5486881.98             STREAMFLOW =          45563.02
     GW BOUNDARY FLOW =         147565.07       GW BOUNDARY FLOW =            729.06

   INFLOWS - OUTFLOWS =        2449451.51     INFLOWS - OUTFLOWS =        -197689.54
             --------                                   --------

 TOTAL STORAGE CHANGE =        2452491.48         STORAGE CHANGE =        -197693.72
       --------------                             --------------
         LAND SURFACE =        1440926.25           LAND SURFACE =        -121359.42
            SOIL ZONE =        2205554.42              SOIL ZONE =         -96274.03
     UNSATURATED ZONE =        -499076.53       UNSATURATED ZONE =          17248.03
       SATURATED ZONE =        -694912.66         SATURATED ZONE =           2691.71

 OVERALL BUDGET ERROR =          -3039.96           BUDGET ERROR =              4.18


  PERCENT DISCREPANCY =             -0.02    PERCENT DISCREPANCY =              0.00



1
 SUMMARY VOLUMETRIC BUDGET FOR GSFLOW 
 DATE: 04 28 1981              CUMULATIVE TIME STEP:     210
 MODFLOW STRESS PERIOD      2     CURRENT TIME STEP:     210     ITERATIONS:       9

 -----------------------------------------------------------------------------------

   CUMULATIVE VOLUMES               L**3   RATES FOR THIS TIME STEP           L**3/T
   ------------------                      ------------------------

                                     IN                                         IN
                                     --                                         --
        PRECIPITATION =        1.6515D+07          PRECIPITATION =                  
           STREAMFLOW =                               STREAMFLOW =                  
     GW BOUNDARY FLOW =                         GW BOUNDARY FLOW =                  


                                    OUT                                        OUT
                                    ---                                        ---
   EVAPOTRANSPIRATION =        9466068.46     EVAPOTRANSPIRATION =         200832.37
           STREAMFLOW =        5698698.24             STREAMFLOW =          24694.73
     GW BOUNDARY FLOW =         152657.17       GW BOUNDARY FLOW =            726.33

   INFLOWS - OUTFLOWS =        1198009.02     INFLOWS - OUTFLOWS =        -226253.43
             --------                                   --------

 TOTAL STORAGE CHANGE =        1201023.84         STORAGE CHANGE =        -226255.06
       --------------                             --------------
         LAND SURFACE =         691530.96           LAND SURFACE =         -83509.90
            SOIL ZONE =        1694252.30              SOIL ZONE =        -138855.24
     UNSATURATED ZONE =        -496339.80       UNSATURATED ZONE =          -3830.22
       SATURATED ZONE =        -688419.62         SATURATED ZONE =            -59.70

 OVERALL BUDGET ERROR =          -3014.82           BUDGET ERROR =              1.63


  PERCENT DISCREPANCY =             -0.02    PERCENT DISCREPANCY =              0.00



1
 SUMMARY VOLUMETRIC BUDGET FOR GSFLOW 
 DATE: 05 05 1981              CUMULATIVE TIME STEP:     217
 MODFLOW STRESS PERIOD      2     CURRENT TIME STEP:     217     ITERATIONS:       9

 -----------------------------------------------------------------------------------

   CUMULATIVE VOLUMES               L**3   RATES FOR THIS TIME STEP           L**3/T
   ------------------                      ------------------------

                                     IN                                         IN
                                     --                                         --
        PRECIPITATION =        1.6515D+07          PRECIPITATION =                  
           STREAMFLOW =                               STREAMFLOW =                  
     GW BOUNDARY FLOW =                         GW BOUNDARY FLOW =                  


                                    OUT                                        OUT
                                    ---                                        ---
   EVAPOTRANSPIRATION =        1.0319D+07     EVAPOTRANSPIRATION =          47788.22
           STREAMFLOW =        5804582.90             STREAMFLOW =          10812.35
     GW BOUNDARY FLOW =         157732.72       GW BOUNDARY FLOW =            724.19

   INFLOWS - OUTFLOWS =         234516.65     INFLOWS - OUTFLOWS =         -59324.75
             --------                                   --------

 TOTAL STORAGE CHANGE =         237557.20         STORAGE CHANGE =         -59321.11
       --------------                             --------------
         LAND SURFACE =         347350.76           LAND SURFACE =         -17502.06
            SOIL ZONE =        1184762.17              SOIL ZONE =         -22940.50
     UNSATURATED ZONE =        -588788.20       UNSATURATED ZONE =         -15088.04
       SATURATED ZONE =        -705767.53         SATURATED ZONE =          -3790.51

 OVERALL BUDGET ERROR =          -3040.56           BUDGET ERROR =             -3.65


  PERCENT DISCREPANCY =             -0.02    PERCENT DISCREPANCY =             -0.01



1
 SUMMARY VOLUMETRIC BUDGET FOR GSFLOW 
 DATE: 05 12 1981              CUMULATIVE TIME STEP:     224
 MODFLOW STRESS PERIOD      2     CURRENT TIME STEP:     224     ITERATIONS:       9

 -----------------------------------------------------------------------------------

   CUMULATIVE VOLUMES               L**3   RATES FOR THIS TIME STEP           L**3/T
   ------------------                      ------------------------

                                     IN                                         IN
                                     --                                         --
        PRECIPITATION =        1.6515D+07          PRECIPITATION =                  
           STREAMFLOW =                               STREAMFLOW =                  
     GW BOUNDARY FLOW =                         GW BOUNDARY FLOW =                  


                                    OUT                                        OUT
                                    ---                                        ---
   EVAPOTRANSPIRATION =        1.0810D+07     EVAPOTRANSPIRATION =          91189.57
           STREAMFLOW =        5875332.87             STREAMFLOW =          10412.38
     GW BOUNDARY FLOW =         162798.32       GW BOUNDARY FLOW =            723.47

   INFLOWS - OUTFLOWS =        -332361.34     INFLOWS - OUTFLOWS =        -102325.42
             --------                                   --------

 TOTAL STORAGE CHANGE =        -329278.55         STORAGE CHANGE =        -102319.76
       --------------                             --------------
         LAND SURFACE =         198678.97           LAND SURFACE =         -25500.84
            SOIL ZONE =         901633.35              SOIL ZONE =         -57954.60
     UNSATURATED ZONE =        -690181.20       UNSATURATED ZONE =         -12944.00
       SATURATED ZONE =        -739409.66         SATURATED ZONE =          -5920.32

 OVERALL BUDGET ERROR =          -3082.80           BUDGET ERROR =             -5.66


  PERCENT DISCREPANCY =             -0.02    PERCENT DISCREPANCY =             -0.01



1
 SUMMARY VOLUMETRIC BUDGET FOR GSFLOW 
 DATE: 05 19 1981              CUMULATIVE TIME STEP:     231
 MODFLOW STRESS PERIOD      2     CURRENT TIME STEP:     231     ITERATIONS:       8

 -----------------------------------------------------------------------------------

   CUMULATIVE VOLUMES               L**3   RATES FOR THIS TIME STEP           L**3/T
   ------------------                      ------------------------

                                     IN                                         IN
                                     --                                         --
        PRECIPITATION =        1.7837D+07          PRECIPITATION =         169045.43
           STREAMFLOW =                               STREAMFLOW =                  
     GW BOUNDARY FLOW =                         GW BOUNDARY FLOW =                  


                                    OUT                                        OUT
                                    ---                                        ---
   EVAPOTRANSPIRATION =        1.1153D+07     EVAPOTRANSPIRATION =          32129.65
           STREAMFLOW =        6006118.64             STREAMFLOW =          27300.27
     GW BOUNDARY FLOW =         167865.64       GW BOUNDARY FLOW =            725.35

   INFLOWS - OUTFLOWS =         509920.11     INFLOWS - OUTFLOWS =         108890.15
             --------                                   --------

 TOTAL STORAGE CHANGE =         513041.95         STORAGE CHANGE =         108893.86
       --------------                             --------------
         LAND SURFACE =         167097.84           LAND SURFACE =           4534.24
            SOIL ZONE =        1882324.65              SOIL ZONE =         110134.40
     UNSATURATED ZONE =        -756904.64       UNSATURATED ZONE =             -9.54
       SATURATED ZONE =        -779475.90         SATURATED ZONE =          -5765.23

 OVERALL BUDGET ERROR =          -3121.84           BUDGET ERROR =             -3.71


  PERCENT DISCREPANCY =             -0.02    PERCENT DISCREPANCY =             -0.00



1
 SUMMARY VOLUMETRIC BUDGET FOR GSFLOW 
 DATE: 05 26 1981              CUMULATIVE TIME STEP:     238
 MODFLOW STRESS PERIOD      2     CURRENT TIME STEP:     238     ITERATIONS:       8

 -----------------------------------------------------------------------------------

   CUMULATIVE VOLUMES               L**3   RATES FOR THIS TIME STEP           L**3/T
   ------------------                      ------------------------

                                     IN                                         IN
                                     --                                         --
        PRECIPITATION =        1.8252D+07          PRECIPITATION =         284303.67
           STREAMFLOW =                               STREAMFLOW =                  
     GW BOUNDARY FLOW =                         GW BOUNDARY FLOW =                  


                                    OUT                                        OUT
                                    ---                                        ---
   EVAPOTRANSPIRATION =        1.1982D+07     EVAPOTRANSPIRATION =         133987.99
           STREAMFLOW =        6119513.55             STREAMFLOW =          19483.43
     GW BOUNDARY FLOW =         172935.80       GW BOUNDARY FLOW =            724.02

   INFLOWS - OUTFLOWS =         -21999.83     INFLOWS - OUTFLOWS =         130108.23
             --------                                   --------

 TOTAL STORAGE CHANGE =         -18844.75         STORAGE CHANGE =         130114.37
       --------------                             --------------
         LAND SURFACE =          96880.50           LAND SURFACE =          -7049.94
            SOIL ZONE =        1524879.67              SOIL ZONE =         154533.20
     UNSATURATED ZONE =        -813113.26       UNSATURATED ZONE =         -10455.52
       SATURATED ZONE =        -827491.65         SATURATED ZONE =          -6913.37

 OVERALL BUDGET ERROR =          -3155.09           BUDGET ERROR =             -6.14


  PERCENT DISCREPANCY =             -0.02    PERCENT DISCREPANCY =             -0.00



1
 SUMMARY VOLUMETRIC BUDGET FOR GSFLOW 
 DATE: 06 02 1981              CUMULATIVE TIME STEP:     245
 MODFLOW STRESS PERIOD      2     CURRENT TIME STEP:     245     ITERATIONS:      10

 -----------------------------------------------------------------------------------

   CUMULATIVE VOLUMES               L**3   RATES FOR THIS TIME STEP           L**3/T
   ------------------                      ------------------------

                                     IN                                         IN
                                     --                                         --
        PRECIPITATION =        1.8318D+07          PRECIPITATION =          50869.96
           STREAMFLOW =                               STREAMFLOW =                  
     GW BOUNDARY FLOW =                         GW BOUNDARY FLOW =                  


                                    OUT                                        OUT
                                    ---                                        ---
   EVAPOTRANSPIRATION =        1.2778D+07     EVAPOTRANSPIRATION =          69285.53
           STREAMFLOW =        6190198.74             STREAMFLOW =           7757.21
     GW BOUNDARY FLOW =         177998.35       GW BOUNDARY FLOW =            722.65

   INFLOWS - OUTFLOWS =        -827739.91     INFLOWS - OUTFLOWS =         -26895.43
             --------                                   --------

 TOTAL STORAGE CHANGE =        -824534.52         STORAGE CHANGE =         -26888.29
       --------------                             --------------
         LAND SURFACE =          61812.20           LAND SURFACE =          30830.75
            SOIL ZONE =         898892.99              SOIL ZONE =         -35652.53
     UNSATURATED ZONE =        -900015.46       UNSATURATED ZONE =         -13584.84
       SATURATED ZONE =        -885224.25         SATURATED ZONE =          -8481.68

 OVERALL BUDGET ERROR =          -3205.39           BUDGET ERROR =             -7.14


  PERCENT DISCREPANCY =             -0.02    PERCENT DISCREPANCY =             -0.01



1
 SUMMARY VOLUMETRIC BUDGET FOR GSFLOW 
 DATE: 06 09 1981              CUMULATIVE TIME STEP:     252
 MODFLOW STRESS PERIOD      2     CURRENT TIME STEP:     252     ITERATIONS:       9

 -----------------------------------------------------------------------------------

   CUMULATIVE VOLUMES               L**3   RATES FOR THIS TIME STEP           L**3/T
   ------------------                      ------------------------

                                     IN                                         IN
                                     --                                         --
        PRECIPITATION =        1.8318D+07          PRECIPITATION =                  
           STREAMFLOW =                               STREAMFLOW =                  
     GW BOUNDARY FLOW =                         GW BOUNDARY FLOW =                  


                                    OUT                                        OUT
                                    ---                                        ---
   EVAPOTRANSPIRATION =        1.3270D+07     EVAPOTRANSPIRATION =          51332.76
           STREAMFLOW =        6237939.72             STREAMFLOW =           6426.90
     GW BOUNDARY FLOW =         183054.26       GW BOUNDARY FLOW =            722.07

   INFLOWS - OUTFLOWS =       -1372654.10     INFLOWS - OUTFLOWS =         -58481.74
             --------                                   --------

 TOTAL STORAGE CHANGE =       -1369399.70         STORAGE CHANGE =         -58475.14
       --------------                             --------------
         LAND SURFACE =           8252.08           LAND SURFACE =          -1595.17
            SOIL ZONE =         563080.19              SOIL ZONE =         -34630.32
     UNSATURATED ZONE =        -994196.88       UNSATURATED ZONE =         -13438.75
       SATURATED ZONE =        -946535.10         SATURATED ZONE =          -8810.90

 OVERALL BUDGET ERROR =          -3254.40           BUDGET ERROR =             -6.60


  PERCENT DISCREPANCY =             -0.02    PERCENT DISCREPANCY =             -0.01



1
 SUMMARY VOLUMETRIC BUDGET FOR GSFLOW 
 DATE: 06 16 1981              CUMULATIVE TIME STEP:     259
 MODFLOW STRESS PERIOD      2     CURRENT TIME STEP:     259     ITERATIONS:      10

 -----------------------------------------------------------------------------------

   CUMULATIVE VOLUMES               L**3   RATES FOR THIS TIME STEP           L**3/T
   ------------------                      ------------------------

                                     IN                                         IN
                                     --                                         --
        PRECIPITATION =        1.8318D+07          PRECIPITATION =                  
           STREAMFLOW =                               STREAMFLOW =                  
     GW BOUNDARY FLOW =                         GW BOUNDARY FLOW =                  


                                    OUT                                        OUT
                                    ---                                        ---
   EVAPOTRANSPIRATION =        1.3461D+07     EVAPOTRANSPIRATION =          44886.29
           STREAMFLOW =        6281634.13             STREAMFLOW =           6167.67
     GW BOUNDARY FLOW =         188107.73       GW BOUNDARY FLOW =            721.84

   INFLOWS - OUTFLOWS =       -1612295.61     INFLOWS - OUTFLOWS =         -51775.79
             --------                                   --------

 TOTAL STORAGE CHANGE =       -1608994.71         STORAGE CHANGE =         -51769.22
       --------------                             --------------
         LAND SURFACE =           3425.60           LAND SURFACE =           -943.52
            SOIL ZONE =         482751.19              SOIL ZONE =         -28902.39
     UNSATURATED ZONE =       -1085494.89       UNSATURATED ZONE =         -12634.27
       SATURATED ZONE =       -1009676.61         SATURATED ZONE =          -9289.04

 OVERALL BUDGET ERROR =          -3300.90           BUDGET ERROR =             -6.57


  PERCENT DISCREPANCY =             -0.02    PERCENT DISCREPANCY =             -0.01



1
 SUMMARY VOLUMETRIC BUDGET FOR GSFLOW 
 DATE: 06 23 1981              CUMULATIVE TIME STEP:     266
 MODFLOW STRESS PERIOD      2     CURRENT TIME STEP:     266     ITERATIONS:       9

 -----------------------------------------------------------------------------------

   CUMULATIVE VOLUMES               L**3   RATES FOR THIS TIME STEP           L**3/T
   ------------------                      ------------------------

                                     IN                                         IN
                                     --                                         --
        PRECIPITATION =        1.8318D+07          PRECIPITATION =                  
           STREAMFLOW =                               STREAMFLOW =                  
     GW BOUNDARY FLOW =                         GW BOUNDARY FLOW =                  


                                    OUT                                        OUT
                                    ---                                        ---
   EVAPOTRANSPIRATION =        1.3758D+07     EVAPOTRANSPIRATION =          34721.88
           STREAMFLOW =        6323796.21             STREAMFLOW =           5947.24
     GW BOUNDARY FLOW =         193159.75       GW BOUNDARY FLOW =            721.62

   INFLOWS - OUTFLOWS =       -1956409.11     INFLOWS - OUTFLOWS =         -41390.74
             --------                                   --------

 TOTAL STORAGE CHANGE =       -1953062.22         STORAGE CHANGE =         -41384.07
       --------------                             --------------
         LAND SURFACE =                             LAND SURFACE =                  
            SOIL ZONE =         294395.41              SOIL ZONE =         -19752.29
     UNSATURATED ZONE =       -1169867.35       UNSATURATED ZONE =         -11537.29
       SATURATED ZONE =       -1077590.27         SATURATED ZONE =         -10094.50

 OVERALL BUDGET ERROR =          -3346.89           BUDGET ERROR =             -6.66


  PERCENT DISCREPANCY =             -0.02    PERCENT DISCREPANCY =             -0.02



1
 SUMMARY VOLUMETRIC BUDGET FOR GSFLOW 
 DATE: 06 30 1981              CUMULATIVE TIME STEP:     273
 MODFLOW STRESS PERIOD      2     CURRENT TIME STEP:     273     ITERATIONS:       7

 -----------------------------------------------------------------------------------

   CUMULATIVE VOLUMES               L**3   RATES FOR THIS TIME STEP           L**3/T
   ------------------                      ------------------------

                                     IN                                         IN
[...]
     GW BOUNDARY FLOW =        4176787.70       GW BOUNDARY FLOW =            725.86

   INFLOWS - OUTFLOWS =       -7139381.83     INFLOWS - OUTFLOWS =         -53435.33
             --------                                   --------

 TOTAL STORAGE CHANGE =       -7117390.25         STORAGE CHANGE =         -53433.30
       --------------                             --------------
         LAND SURFACE =          84495.33           LAND SURFACE =          -4962.88
            SOIL ZONE =         277721.26              SOIL ZONE =         -26628.75
     UNSATURATED ZONE =        4994882.07       UNSATURATED ZONE =         -28467.49
       SATURATED ZONE =       -1.2474D+07         SATURATED ZONE =           6625.82

 OVERALL BUDGET ERROR =         -21991.58           BUDGET ERROR =             -2.02


  PERCENT DISCREPANCY =             -0.00    PERCENT DISCREPANCY =             -0.00



1
 SUMMARY VOLUMETRIC BUDGET FOR GSFLOW 
 DATE: 07 30 1996              CUMULATIVE TIME STEP:    5782
 MODFLOW STRESS PERIOD      2     CURRENT TIME STEP:    5782     ITERATIONS:       9

 -----------------------------------------------------------------------------------

   CUMULATIVE VOLUMES               L**3   RATES FOR THIS TIME STEP           L**3/T
   ------------------                      ------------------------

                                     IN                                         IN
                                     --                                         --
        PRECIPITATION =        4.6511D+08          PRECIPITATION =                  
           STREAMFLOW =                               STREAMFLOW =                  
     GW BOUNDARY FLOW =                         GW BOUNDARY FLOW =                  


                                    OUT                                        OUT
                                    ---                                        ---
   EVAPOTRANSPIRATION =        2.8400D+08     EVAPOTRANSPIRATION =          30860.58
           STREAMFLOW =        1.8434D+08             STREAMFLOW =           6909.72
     GW BOUNDARY FLOW =        4181866.79       GW BOUNDARY FLOW =            725.47

   INFLOWS - OUTFLOWS =       -7413521.11     INFLOWS - OUTFLOWS =         -38495.76
             --------                                   --------

 TOTAL STORAGE CHANGE =       -7391522.52         STORAGE CHANGE =         -38498.36
       --------------                             --------------
         LAND SURFACE =          55405.90           LAND SURFACE =          -3487.93
            SOIL ZONE =         184119.99              SOIL ZONE =         -13515.22
     UNSATURATED ZONE =        4802389.93       UNSATURATED ZONE =         -27279.94
       SATURATED ZONE =       -1.2433D+07         SATURATED ZONE =           5784.72

 OVERALL BUDGET ERROR =         -21998.59           BUDGET ERROR =              2.60


  PERCENT DISCREPANCY =             -0.00    PERCENT DISCREPANCY =              0.01



1
 SUMMARY VOLUMETRIC BUDGET FOR GSFLOW 
 DATE: 08 06 1996              CUMULATIVE TIME STEP:    5789
 MODFLOW STRESS PERIOD      2     CURRENT TIME STEP:    5789     ITERATIONS:      10

 -----------------------------------------------------------------------------------

   CUMULATIVE VOLUMES               L**3   RATES FOR THIS TIME STEP           L**3/T
   ------------------                      ------------------------

                                     IN                                         IN
                                     --                                         --
        PRECIPITATION =        4.6511D+08          PRECIPITATION =                  
           STREAMFLOW =                               STREAMFLOW =                  
     GW BOUNDARY FLOW =                         GW BOUNDARY FLOW =                  


                                    OUT                                        OUT
                                    ---                                        ---
   EVAPOTRANSPIRATION =        2.8415D+08     EVAPOTRANSPIRATION =          21564.39
           STREAMFLOW =        1.8439D+08             STREAMFLOW =           6695.50
     GW BOUNDARY FLOW =        4186944.42       GW BOUNDARY FLOW =            725.29

   INFLOWS - OUTFLOWS =       -7613099.93     INFLOWS - OUTFLOWS =         -28985.19
             --------                                   --------

 TOTAL STORAGE CHANGE =       -7591087.73         STORAGE CHANGE =         -28983.25
       --------------                             --------------
         LAND SURFACE =          37062.04           LAND SURFACE =          -2253.66
            SOIL ZONE =         152040.79              SOIL ZONE =          -5559.39
     UNSATURATED ZONE =        4613718.09       UNSATURATED ZONE =         -26591.63
       SATURATED ZONE =       -1.2394D+07         SATURATED ZONE =           5421.42

 OVERALL BUDGET ERROR =         -22012.21           BUDGET ERROR =             -1.93


  PERCENT DISCREPANCY =             -0.00    PERCENT DISCREPANCY =             -0.01



1
 SUMMARY VOLUMETRIC BUDGET FOR GSFLOW 
 DATE: 08 13 1996              CUMULATIVE TIME STEP:    5796
 MODFLOW STRESS PERIOD      2     CURRENT TIME STEP:    5796     ITERATIONS:      11

 -----------------------------------------------------------------------------------

   CUMULATIVE VOLUMES               L**3   RATES FOR THIS TIME STEP           L**3/T
   ------------------                      ------------------------

                                     IN                                         IN
                                     --                                         --
        PRECIPITATION =        4.6531D+08          PRECIPITATION =          54454.08
           STREAMFLOW =                               STREAMFLOW =                  
     GW BOUNDARY FLOW =                         GW BOUNDARY FLOW =                  


                                    OUT                                        OUT
                                    ---                                        ---
   EVAPOTRANSPIRATION =        2.8433D+08     EVAPOTRANSPIRATION =          32647.69
           STREAMFLOW =        1.8444D+08             STREAMFLOW =           7897.78
     GW BOUNDARY FLOW =        4192020.74       GW BOUNDARY FLOW =            725.20

   INFLOWS - OUTFLOWS =       -7641416.23     INFLOWS - OUTFLOWS =          13183.42
             --------                                   --------

 TOTAL STORAGE CHANGE =       -7619397.30         STORAGE CHANGE =          13188.38
       --------------                             --------------
         LAND SURFACE =          53162.52           LAND SURFACE =          -2312.39
            SOIL ZONE =         254313.33              SOIL ZONE =          36265.93
     UNSATURATED ZONE =        4436275.24       UNSATURATED ZONE =         -24709.55
       SATURATED ZONE =       -1.2363D+07         SATURATED ZONE =           3944.39

 OVERALL BUDGET ERROR =         -22018.94           BUDGET ERROR =             -4.96


  PERCENT DISCREPANCY =             -0.00    PERCENT DISCREPANCY =             -0.01



1
 SUMMARY VOLUMETRIC BUDGET FOR GSFLOW 
 DATE: 08 20 1996              CUMULATIVE TIME STEP:    5803
 MODFLOW STRESS PERIOD      2     CURRENT TIME STEP:    5803     ITERATIONS:       9

 -----------------------------------------------------------------------------------

   CUMULATIVE VOLUMES               L**3   RATES FOR THIS TIME STEP           L**3/T
   ------------------                      ------------------------

                                     IN                                         IN
                                     --                                         --
        PRECIPITATION =        4.6531D+08          PRECIPITATION =                  
           STREAMFLOW =                               STREAMFLOW =                  
     GW BOUNDARY FLOW =                         GW BOUNDARY FLOW =                  


                                    OUT                                        OUT
                                    ---                                        ---
   EVAPOTRANSPIRATION =        2.8452D+08     EVAPOTRANSPIRATION =          18012.15
           STREAMFLOW =        1.8448D+08             STREAMFLOW =           6486.33
     GW BOUNDARY FLOW =        4197095.08       GW BOUNDARY FLOW =            724.69

   INFLOWS - OUTFLOWS =       -7891712.11     INFLOWS - OUTFLOWS =         -25223.18
             --------                                   --------

 TOTAL STORAGE CHANGE =       -7869677.62         STORAGE CHANGE =         -25223.80
       --------------                             --------------
         LAND SURFACE =           6921.38           LAND SURFACE =          -1297.31
            SOIL ZONE =         195361.71              SOIL ZONE =          -3310.74
     UNSATURATED ZONE =        4266599.07       UNSATURATED ZONE =         -23792.23
       SATURATED ZONE =       -1.2339D+07         SATURATED ZONE =           3176.49

 OVERALL BUDGET ERROR =         -22034.49           BUDGET ERROR =              0.62


  PERCENT DISCREPANCY =             -0.00    PERCENT DISCREPANCY =              0.00



1
 SUMMARY VOLUMETRIC BUDGET FOR GSFLOW 
 DATE: 08 27 1996              CUMULATIVE TIME STEP:    5810
 MODFLOW STRESS PERIOD      2     CURRENT TIME STEP:    5810     ITERATIONS:       9

 -----------------------------------------------------------------------------------

   CUMULATIVE VOLUMES               L**3   RATES FOR THIS TIME STEP           L**3/T
   ------------------                      ------------------------

                                     IN                                         IN
                                     --                                         --
        PRECIPITATION =        4.6531D+08          PRECIPITATION =                  
           STREAMFLOW =                               STREAMFLOW =                  
     GW BOUNDARY FLOW =                         GW BOUNDARY FLOW =                  


                                    OUT                                        OUT
                                    ---                                        ---
   EVAPOTRANSPIRATION =        2.8466D+08     EVAPOTRANSPIRATION =          15664.76
           STREAMFLOW =        1.8453D+08             STREAMFLOW =           6320.00
     GW BOUNDARY FLOW =        4202166.11       GW BOUNDARY FLOW =            724.25

   INFLOWS - OUTFLOWS =       -8081859.69     INFLOWS - OUTFLOWS =         -22709.01
             --------                                   --------

 TOTAL STORAGE CHANGE =       -8059826.39         STORAGE CHANGE =         -22709.49
       --------------                             --------------
         LAND SURFACE =           1243.96           LAND SURFACE =           -271.65
            SOIL ZONE =         154147.49              SOIL ZONE =          -2081.16
     UNSATURATED ZONE =        4105440.53       UNSATURATED ZONE =         -22852.96
       SATURATED ZONE =       -1.2321D+07         SATURATED ZONE =           2496.27

 OVERALL BUDGET ERROR =         -22033.31           BUDGET ERROR =              0.49


  PERCENT DISCREPANCY =             -0.00    PERCENT DISCREPANCY =              0.00



1
 SUMMARY VOLUMETRIC BUDGET FOR GSFLOW 
 DATE: 09 03 1996              CUMULATIVE TIME STEP:    5817
 MODFLOW STRESS PERIOD      2     CURRENT TIME STEP:    5817     ITERATIONS:       8

 -----------------------------------------------------------------------------------

   CUMULATIVE VOLUMES               L**3   RATES FOR THIS TIME STEP           L**3/T
   ------------------                      ------------------------

                                     IN                                         IN
                                     --                                         --
        PRECIPITATION =        4.6531D+08          PRECIPITATION =                  
           STREAMFLOW =                               STREAMFLOW =                  
     GW BOUNDARY FLOW =                         GW BOUNDARY FLOW =                  


                                    OUT                                        OUT
                                    ---                                        ---
   EVAPOTRANSPIRATION =        2.8477D+08     EVAPOTRANSPIRATION =          12480.29
           STREAMFLOW =        1.8457D+08             STREAMFLOW =           6213.65
     GW BOUNDARY FLOW =        4207234.00       GW BOUNDARY FLOW =            723.80

   INFLOWS - OUTFLOWS =       -8237328.34     INFLOWS - OUTFLOWS =         -19417.74
             --------                                   --------

 TOTAL STORAGE CHANGE =       -8215306.91         STORAGE CHANGE =         -19423.52
       --------------                             --------------
         LAND SURFACE =            583.76           LAND SURFACE =            -75.05
            SOIL ZONE =         140871.50              SOIL ZONE =            774.87
     UNSATURATED ZONE =        3950083.08       UNSATURATED ZONE =         -21825.47
       SATURATED ZONE =       -1.2307D+07         SATURATED ZONE =           1702.13

 OVERALL BUDGET ERROR =         -22021.44           BUDGET ERROR =              5.78


  PERCENT DISCREPANCY =             -0.00    PERCENT DISCREPANCY =              0.03



1
 SUMMARY VOLUMETRIC BUDGET FOR GSFLOW 
 DATE: 09 10 1996              CUMULATIVE TIME STEP:    5824
 MODFLOW STRESS PERIOD      2     CURRENT TIME STEP:    5824     ITERATIONS:       8

 -----------------------------------------------------------------------------------

   CUMULATIVE VOLUMES               L**3   RATES FOR THIS TIME STEP           L**3/T
   ------------------                      ------------------------

                                     IN                                         IN
                                     --                                         --
        PRECIPITATION =        4.6531D+08          PRECIPITATION =                  
           STREAMFLOW =                               STREAMFLOW =                  
     GW BOUNDARY FLOW =                         GW BOUNDARY FLOW =                  


                                    OUT                                        OUT
                                    ---                                        ---
   EVAPOTRANSPIRATION =        2.8486D+08     EVAPOTRANSPIRATION =          13707.01
           STREAMFLOW =        1.8462D+08             STREAMFLOW =           6117.96
     GW BOUNDARY FLOW =        4212298.85       GW BOUNDARY FLOW =            723.36

   INFLOWS - OUTFLOWS =       -8372035.55     INFLOWS - OUTFLOWS =         -20548.33
             --------                                   --------

 TOTAL STORAGE CHANGE =       -8350048.54         STORAGE CHANGE =         -20552.56
       --------------                             --------------
         LAND SURFACE =            141.35           LAND SURFACE =            -69.28
            SOIL ZONE =         146518.89              SOIL ZONE =           -587.71
     UNSATURATED ZONE =        3801965.60       UNSATURATED ZONE =         -20622.02
       SATURATED ZONE =       -1.2299D+07         SATURATED ZONE =            726.46

 OVERALL BUDGET ERROR =         -21987.00           BUDGET ERROR =              4.23


  PERCENT DISCREPANCY =             -0.00    PERCENT DISCREPANCY =              0.02



1
 SUMMARY VOLUMETRIC BUDGET FOR GSFLOW 
 DATE: 09 17 1996              CUMULATIVE TIME STEP:    5831
 MODFLOW STRESS PERIOD      2     CURRENT TIME STEP:    5831     ITERATIONS:      11

 -----------------------------------------------------------------------------------

   CUMULATIVE VOLUMES               L**3   RATES FOR THIS TIME STEP           L**3/T
   ------------------                      ------------------------

                                     IN                                         IN
                                     --                                         --
        PRECIPITATION =        4.6637D+08          PRECIPITATION =                  
           STREAMFLOW =                               STREAMFLOW =                  
     GW BOUNDARY FLOW =                         GW BOUNDARY FLOW =                  


                                    OUT                                        OUT
                                    ---                                        ---
   EVAPOTRANSPIRATION =        2.8503D+08     EVAPOTRANSPIRATION =          58054.02
           STREAMFLOW =        1.8468D+08             STREAMFLOW =          10259.35
     GW BOUNDARY FLOW =        4217363.29       GW BOUNDARY FLOW =            723.95

   INFLOWS - OUTFLOWS =       -7567443.53     INFLOWS - OUTFLOWS =         -69037.32
             --------                                   --------

 TOTAL STORAGE CHANGE =       -7545469.45         STORAGE CHANGE =         -69032.87
       --------------                             --------------
         LAND SURFACE =           3348.24           LAND SURFACE =         -35098.95
            SOIL ZONE =        1084307.72              SOIL ZONE =         -14261.80
     UNSATURATED ZONE =        3659911.07       UNSATURATED ZONE =         -19955.13
       SATURATED ZONE =       -1.2293D+07         SATURATED ZONE =            283.01

 OVERALL BUDGET ERROR =         -21974.08           BUDGET ERROR =             -4.45


  PERCENT DISCREPANCY =             -0.00    PERCENT DISCREPANCY =             -0.01



1
 SUMMARY VOLUMETRIC BUDGET FOR GSFLOW 
 DATE: 09 24 1996              CUMULATIVE TIME STEP:    5838
 MODFLOW STRESS PERIOD      2     CURRENT TIME STEP:    5838     ITERATIONS:      10

 -----------------------------------------------------------------------------------

   CUMULATIVE VOLUMES               L**3   RATES FOR THIS TIME STEP           L**3/T
   ------------------                      ------------------------

                                     IN                                         IN
                                     --                                         --
        PRECIPITATION =        4.6637D+08          PRECIPITATION =                  
           STREAMFLOW =                               STREAMFLOW =                  
     GW BOUNDARY FLOW =                         GW BOUNDARY FLOW =                  


                                    OUT                                        OUT
                                    ---                                        ---
   EVAPOTRANSPIRATION =        2.8551D+08     EVAPOTRANSPIRATION =          54376.14
           STREAMFLOW =        1.8474D+08             STREAMFLOW =           6730.11
     GW BOUNDARY FLOW =        4222426.15       GW BOUNDARY FLOW =            722.87

   INFLOWS - OUTFLOWS =       -8099367.11     INFLOWS - OUTFLOWS =         -61829.13
             --------                                   --------

 TOTAL STORAGE CHANGE =       -8077366.00         STORAGE CHANGE =         -61825.83
       --------------                             --------------
         LAND SURFACE =                             LAND SURFACE =                  
            SOIL ZONE =         692716.70              SOIL ZONE =         -42342.43
     UNSATURATED ZONE =        3523907.63       UNSATURATED ZONE =         -19019.76
       SATURATED ZONE =       -1.2294D+07         SATURATED ZONE =           -463.64

 OVERALL BUDGET ERROR =         -22001.11           BUDGET ERROR =             -3.30


  PERCENT DISCREPANCY =             -0.00    PERCENT DISCREPANCY =             -0.01



 Number of time steps:   5844;  Number of non-convergence:   0
 MF iterations:         45413;  SZ iterations:           45413
 Average MF iterations:  7.77;  Average SZ iterations:    7.77
 Maximum MF iterations:    24;  Maximum SZ iterations:      24

