1
 SUMMARY VOLUMETRIC BUDGET FOR GSFLOW 
 DATE: 10 07 1990              CUMULATIVE TIME STEP:       7
 MODFLOW STRESS PERIOD      2     CURRENT TIME STEP:       7     ITERATIONS:       7

 -----------------------------------------------------------------------------------

   CUMULATIVE VOLUMES               L**3   RATES FOR THIS TIME STEP           L**3/T
   ------------------                      ------------------------

                                     IN                                         IN
                                     --                                         --
        PRECIPITATION =                            PRECIPITATION =                  
           STREAMFLOW =                               STREAMFLOW =                  
     GW BOUNDARY FLOW =                         GW BOUNDARY FLOW =                  


                                    OUT                                        OUT
                                    ---                                        ---
   EVAPOTRANSPIRATION =         384999.48     EVAPOTRANSPIRATION =          11800.15
           STREAMFLOW =          46334.12             STREAMFLOW =           8189.66
     GW BOUNDARY FLOW =            252.80       GW BOUNDARY FLOW =             36.30

   INFLOWS - OUTFLOWS =        -431586.41     INFLOWS - OUTFLOWS =         -20026.11
             --------                                   --------

 TOTAL STORAGE CHANGE =        -430118.18         STORAGE CHANGE =         -19999.45
       --------------                             --------------
         LAND SURFACE =                             LAND SURFACE =                  
            SOIL ZONE =         -33647.81              SOIL ZONE =           -949.05
     UNSATURATED ZONE =        -502244.94       UNSATURATED ZONE =         -33314.49
       SATURATED ZONE =         105774.57         SATURATED ZONE =          14264.08

 OVERALL BUDGET ERROR =          -1468.22           BUDGET ERROR =            -26.66


  PERCENT DISCREPANCY =             -0.34    PERCENT DISCREPANCY =             -0.13



1
 SUMMARY VOLUMETRIC BUDGET FOR GSFLOW 
 DATE: 10 14 1990              CUMULATIVE TIME STEP:      14
 MODFLOW STRESS PERIOD      2     CURRENT TIME STEP:      14     ITERATIONS:       8

 -----------------------------------------------------------------------------------

   CUMULATIVE VOLUMES               L**3   RATES FOR THIS TIME STEP           L**3/T
   ------------------                      ------------------------

                                     IN                                         IN
                                     --                                         --
        PRECIPITATION =                            PRECIPITATION =                  
           STREAMFLOW =                               STREAMFLOW =                  
     GW BOUNDARY FLOW =                         GW BOUNDARY FLOW =                  


                                    OUT                                        OUT
                                    ---                                        ---
   EVAPOTRANSPIRATION =         665205.57     EVAPOTRANSPIRATION =          42318.38
           STREAMFLOW =         100524.51             STREAMFLOW =           7171.44
     GW BOUNDARY FLOW =            506.62       GW BOUNDARY FLOW =             36.23

   INFLOWS - OUTFLOWS =        -766236.69     INFLOWS - OUTFLOWS =         -49526.05
             --------                                   --------

 TOTAL STORAGE CHANGE =        -764472.33         STORAGE CHANGE =         -49502.65
       --------------                             --------------
         LAND SURFACE =                             LAND SURFACE =                  
            SOIL ZONE =         -58651.70              SOIL ZONE =          -4416.66
     UNSATURATED ZONE =        -877112.68       UNSATURATED ZONE =         -52140.09
       SATURATED ZONE =         171292.04         SATURATED ZONE =           7054.10

 OVERALL BUDGET ERROR =          -1764.36           BUDGET ERROR =            -23.41


  PERCENT DISCREPANCY =             -0.23    PERCENT DISCREPANCY =             -0.05



1
 SUMMARY VOLUMETRIC BUDGET FOR GSFLOW 
 DATE: 10 21 1990              CUMULATIVE TIME STEP:      21
 MODFLOW STRESS PERIOD      2     CURRENT TIME STEP:      21     ITERATIONS:       6

 -----------------------------------------------------------------------------------

   CUMULATIVE VOLUMES               L**3   RATES FOR THIS TIME STEP           L**3/T
   ------------------                      ------------------------

                                     IN                                         IN
                                     --                                         --
        PRECIPITATION =         188432.87          PRECIPITATION =                  
           STREAMFLOW =                               STREAMFLOW =                  
     GW BOUNDARY FLOW =                         GW BOUNDARY FLOW =                  


                                    OUT                                        OUT
                                    ---                                        ---
   EVAPOTRANSPIRATION =         815476.41     EVAPOTRANSPIRATION =          41709.13
           STREAMFLOW =         163076.31             STREAMFLOW =          10122.54
     GW BOUNDARY FLOW =            760.80       GW BOUNDARY FLOW =             36.37

   INFLOWS - OUTFLOWS =        -790880.65     INFLOWS - OUTFLOWS =         -51868.04
             --------                                   --------

 TOTAL STORAGE CHANGE =        -789060.82         STORAGE CHANGE =         -51872.79
       --------------                             --------------
         LAND SURFACE =          18885.57           LAND SURFACE =         -43558.49
            SOIL ZONE =          48189.23              SOIL ZONE =           2053.08
     UNSATURATED ZONE =       -1091100.61       UNSATURATED ZONE =         -21374.28
       SATURATED ZONE =         234964.99         SATURATED ZONE =          11006.89

 OVERALL BUDGET ERROR =          -1819.83           BUDGET ERROR =              4.75


  PERCENT DISCREPANCY =             -0.19    PERCENT DISCREPANCY =              0.01



1
 SUMMARY VOLUMETRIC BUDGET FOR GSFLOW 
 DATE: 10 28 1990              CUMULATIVE TIME STEP:      28
 MODFLOW STRESS PERIOD      2     CURRENT TIME STEP:      28     ITERATIONS:       6

 -----------------------------------------------------------------------------------

   CUMULATIVE VOLUMES               L**3   RATES FOR THIS TIME STEP           L**3/T
   ------------------                      ------------------------

                                     IN                                         IN
                                     --                                         --
        PRECIPITATION =         188432.87          PRECIPITATION =                  
           STREAMFLOW =                               STREAMFLOW =                  
     GW BOUNDARY FLOW =                         GW BOUNDARY FLOW =                  


                                    OUT                                        OUT
                                    ---                                        ---
   EVAPOTRANSPIRATION =         943866.39     EVAPOTRANSPIRATION =          11832.04
           STREAMFLOW =         224468.59             STREAMFLOW =           8922.33
     GW BOUNDARY FLOW =           1013.98       GW BOUNDARY FLOW =             36.12

   INFLOWS - OUTFLOWS =        -980916.10     INFLOWS - OUTFLOWS =         -20790.49
             --------                                   --------

 TOTAL STORAGE CHANGE =        -979084.68         STORAGE CHANGE =         -20792.52
       --------------                             --------------
         LAND SURFACE =                             LAND SURFACE =                  
            SOIL ZONE =          19151.06              SOIL ZONE =          -3436.22
     UNSATURATED ZONE =       -1274855.66       UNSATURATED ZONE =         -23294.85
       SATURATED ZONE =         276619.91         SATURATED ZONE =           5938.54

 OVERALL BUDGET ERROR =          -1831.42           BUDGET ERROR =              2.03


  PERCENT DISCREPANCY =             -0.16    PERCENT DISCREPANCY =              0.01



1
 SUMMARY VOLUMETRIC BUDGET FOR GSFLOW 
 DATE: 11 04 1990              CUMULATIVE TIME STEP:       4
 MODFLOW STRESS PERIOD      3     CURRENT TIME STEP:      35     ITERATIONS:       6

 -----------------------------------------------------------------------------------

   CUMULATIVE VOLUMES               L**3   RATES FOR THIS TIME STEP           L**3/T
   ------------------                      ------------------------

                                     IN                                         IN
                                     --                                         --
        PRECIPITATION =         703113.06          PRECIPITATION =                  
           STREAMFLOW =                               STREAMFLOW =                  
     GW BOUNDARY FLOW =                         GW BOUNDARY FLOW =                  


                                    OUT                                        OUT
                                    ---                                        ---
   EVAPOTRANSPIRATION =        1004453.61     EVAPOTRANSPIRATION =          26280.47
           STREAMFLOW =         294667.17             STREAMFLOW =          10513.24
     GW BOUNDARY FLOW =           1267.02       GW BOUNDARY FLOW =             36.14

   INFLOWS - OUTFLOWS =        -597274.74     INFLOWS - OUTFLOWS =         -36829.84
             --------                                   --------

 TOTAL STORAGE CHANGE =        -595464.93         STORAGE CHANGE =         -36834.54
       --------------                             --------------
         LAND SURFACE =         132159.65           LAND SURFACE =        -160480.33
            SOIL ZONE =         356558.75              SOIL ZONE =         134353.57
     UNSATURATED ZONE =       -1420704.05       UNSATURATED ZONE =         -20110.62
       SATURATED ZONE =         336520.72         SATURATED ZONE =           9402.83

 OVERALL BUDGET ERROR =          -1809.81           BUDGET ERROR =              4.70


  PERCENT DISCREPANCY =             -0.14    PERCENT DISCREPANCY =              0.01



1
 SUMMARY VOLUMETRIC BUDGET FOR GSFLOW 
 DATE: 11 11 1990              CUMULATIVE TIME STEP:      11
 MODFLOW STRESS PERIOD      3     CURRENT TIME STEP:      42     ITERATIONS:       6

 -----------------------------------------------------------------------------------

   CUMULATIVE VOLUMES               L**3   RATES FOR THIS TIME STEP           L**3/T
   ------------------                      ------------------------

                                     IN                                         IN
                                     --                                         --
        PRECIPITATION =         703113.06          PRECIPITATION =                  
           STREAMFLOW =                               STREAMFLOW =                  
     GW BOUNDARY FLOW =                         GW BOUNDARY FLOW =                  


                                    OUT                                        OUT
                                    ---                                        ---
   EVAPOTRANSPIRATION =        1081624.94     EVAPOTRANSPIRATION =          12135.05
           STREAMFLOW =         365279.77             STREAMFLOW =           9606.05
     GW BOUNDARY FLOW =           1519.12       GW BOUNDARY FLOW =             35.92

   INFLOWS - OUTFLOWS =        -745310.77     INFLOWS - OUTFLOWS =         -21777.02
             --------                                   --------

 TOTAL STORAGE CHANGE =        -743522.04         STORAGE CHANGE =         -21779.73
       --------------                             --------------
         LAND SURFACE =            595.09           LAND SURFACE =          -1416.54
            SOIL ZONE =         429484.36              SOIL ZONE =          -5401.55
     UNSATURATED ZONE =       -1560245.98       UNSATURATED ZONE =         -19909.27
       SATURATED ZONE =         386644.49         SATURATED ZONE =           4947.63

 OVERALL BUDGET ERROR =          -1788.73           BUDGET ERROR =              2.70


  PERCENT DISCREPANCY =             -0.12    PERCENT DISCREPANCY =              0.01



1
 SUMMARY VOLUMETRIC BUDGET FOR GSFLOW 
 DATE: 11 18 1990              CUMULATIVE TIME STEP:      18
 MODFLOW STRESS PERIOD      3     CURRENT TIME STEP:      49     ITERATIONS:       6

 -----------------------------------------------------------------------------------

   CUMULATIVE VOLUMES               L**3   RATES FOR THIS TIME STEP           L**3/T
   ------------------                      ------------------------

                                     IN                                         IN
                                     --                                         --
        PRECIPITATION =         747883.35          PRECIPITATION =                  
           STREAMFLOW =                               STREAMFLOW =                  
     GW BOUNDARY FLOW =                         GW BOUNDARY FLOW =                  


                                    OUT                                        OUT
                                    ---                                        ---
   EVAPOTRANSPIRATION =        1154047.63     EVAPOTRANSPIRATION =           5054.40
           STREAMFLOW =         436725.24             STREAMFLOW =          10639.64
     GW BOUNDARY FLOW =           1770.43       GW BOUNDARY FLOW =             35.88

   INFLOWS - OUTFLOWS =        -844659.94     INFLOWS - OUTFLOWS =         -15729.93
             --------                                   --------

 TOTAL STORAGE CHANGE =        -842887.07         STORAGE CHANGE =         -15733.08
       --------------                             --------------
         LAND SURFACE =           7868.08           LAND SURFACE =          -3691.47
            SOIL ZONE =         411954.10              SOIL ZONE =           -677.73
     UNSATURATED ZONE =       -1693790.91       UNSATURATED ZONE =         -18656.15
       SATURATED ZONE =         431081.66         SATURATED ZONE =           7292.27

 OVERALL BUDGET ERROR =          -1772.87           BUDGET ERROR =              3.15


  PERCENT DISCREPANCY =             -0.11    PERCENT DISCREPANCY =              0.02



1
 SUMMARY VOLUMETRIC BUDGET FOR GSFLOW 
 DATE: 11 25 1990              CUMULATIVE TIME STEP:      25
 MODFLOW STRESS PERIOD      3     CURRENT TIME STEP:      56     ITERATIONS:       6

 -----------------------------------------------------------------------------------

   CUMULATIVE VOLUMES               L**3   RATES FOR THIS TIME STEP           L**3/T
   ------------------                      ------------------------

                                     IN                                         IN
                                     --                                         --
        PRECIPITATION =        1009043.38          PRECIPITATION =         186542.88
           STREAMFLOW =                               STREAMFLOW =                  
     GW BOUNDARY FLOW =                         GW BOUNDARY FLOW =                  


                                    OUT                                        OUT
                                    ---                                        ---
   EVAPOTRANSPIRATION =        1214477.16     EVAPOTRANSPIRATION =           3757.99
           STREAMFLOW =         512395.59             STREAMFLOW =          10722.56
     GW BOUNDARY FLOW =           2021.37       GW BOUNDARY FLOW =             35.79

   INFLOWS - OUTFLOWS =        -719850.73     INFLOWS - OUTFLOWS =         172026.54
             --------                                   --------

 TOTAL STORAGE CHANGE =        -718096.84         STORAGE CHANGE =         172024.30
       --------------                             --------------
         LAND SURFACE =          86180.68           LAND SURFACE =          69567.13
            SOIL ZONE =         536742.06              SOIL ZONE =         114159.41
     UNSATURATED ZONE =       -1821791.60       UNSATURATED ZONE =         -17975.15
       SATURATED ZONE =         480772.03         SATURATED ZONE =           6272.90

 OVERALL BUDGET ERROR =          -1753.90           BUDGET ERROR =              2.24


  PERCENT DISCREPANCY =             -0.10    PERCENT DISCREPANCY =              0.00



1
 SUMMARY VOLUMETRIC BUDGET FOR GSFLOW 
 DATE: 12 02 1990              CUMULATIVE TIME STEP:       2
 MODFLOW STRESS PERIOD      4     CURRENT TIME STEP:      63     ITERATIONS:       6

 -----------------------------------------------------------------------------------

   CUMULATIVE VOLUMES               L**3   RATES FOR THIS TIME STEP           L**3/T
   ------------------                      ------------------------

                                     IN                                         IN
                                     --                                         --
        PRECIPITATION =        1449284.55          PRECIPITATION =                  
           STREAMFLOW =                               STREAMFLOW =                  
     GW BOUNDARY FLOW =                         GW BOUNDARY FLOW =                  


                                    OUT                                        OUT
                                    ---                                        ---
   EVAPOTRANSPIRATION =        1220972.83     EVAPOTRANSPIRATION =            234.69
           STREAMFLOW =         589255.12             STREAMFLOW =          11030.24
     GW BOUNDARY FLOW =           2271.84       GW BOUNDARY FLOW =             35.77

   INFLOWS - OUTFLOWS =        -363215.24     INFLOWS - OUTFLOWS =         -11300.69
             --------                                   --------

 TOTAL STORAGE CHANGE =        -361476.79         STORAGE CHANGE =         -11302.64
       --------------                             --------------
         LAND SURFACE =         486845.62           LAND SURFACE =           -339.04
            SOIL ZONE =         570723.03              SOIL ZONE =            234.66
     UNSATURATED ZONE =       -1944999.42       UNSATURATED ZONE =         -17307.31
       SATURATED ZONE =         525953.97         SATURATED ZONE =           6109.06

 OVERALL BUDGET ERROR =          -1738.44           BUDGET ERROR =              1.95


  PERCENT DISCREPANCY =             -0.10    PERCENT DISCREPANCY =              0.02



1
 SUMMARY VOLUMETRIC BUDGET FOR GSFLOW 
 DATE: 12 09 1990              CUMULATIVE TIME STEP:       9
 MODFLOW STRESS PERIOD      4     CURRENT TIME STEP:      70     ITERATIONS:       6

 -----------------------------------------------------------------------------------

   CUMULATIVE VOLUMES               L**3   RATES FOR THIS TIME STEP           L**3/T
   ------------------                      ------------------------

                                     IN                                         IN
                                     --                                         --
        PRECIPITATION =        1449284.55          PRECIPITATION =                  
           STREAMFLOW =                               STREAMFLOW =                  
     GW BOUNDARY FLOW =                         GW BOUNDARY FLOW =                  


                                    OUT                                        OUT
                                    ---                                        ---
   EVAPOTRANSPIRATION =        1296809.55     EVAPOTRANSPIRATION =          13848.91
           STREAMFLOW =         666119.58             STREAMFLOW =          10741.25
     GW BOUNDARY FLOW =           2521.78       GW BOUNDARY FLOW =             35.64

   INFLOWS - OUTFLOWS =        -516166.36     INFLOWS - OUTFLOWS =         -24625.80
             --------                                   --------

 TOTAL STORAGE CHANGE =        -514438.32         STORAGE CHANGE =         -24626.60
       --------------                             --------------
         LAND SURFACE =          67215.41           LAND SURFACE =         -45889.70
            SOIL ZONE =         918835.21              SOIL ZONE =          33773.82
     UNSATURATED ZONE =       -2063180.71       UNSATURATED ZONE =         -16526.68
       SATURATED ZONE =         562691.77         SATURATED ZONE =           4015.95

 OVERALL BUDGET ERROR =          -1728.04           BUDGET ERROR =              0.79


  PERCENT DISCREPANCY =             -0.09    PERCENT DISCREPANCY =              0.00



1
 SUMMARY VOLUMETRIC BUDGET FOR GSFLOW 
 DATE: 12 16 1990              CUMULATIVE TIME STEP:      16
 MODFLOW STRESS PERIOD      4     CURRENT TIME STEP:      77     ITERATIONS:       5

 -----------------------------------------------------------------------------------

   CUMULATIVE VOLUMES               L**3   RATES FOR THIS TIME STEP           L**3/T
   ------------------                      ------------------------

                                     IN                                         IN
                                     --                                         --
        PRECIPITATION =        1804962.84          PRECIPITATION =                  
           STREAMFLOW =                               STREAMFLOW =                  
     GW BOUNDARY FLOW =                         GW BOUNDARY FLOW =                  


                                    OUT                                        OUT
                                    ---                                        ---
   EVAPOTRANSPIRATION =        1325087.39     EVAPOTRANSPIRATION =                  
           STREAMFLOW =         744524.06             STREAMFLOW =          11386.92
     GW BOUNDARY FLOW =           2771.16       GW BOUNDARY FLOW =             35.61

   INFLOWS - OUTFLOWS =        -267419.77     INFLOWS - OUTFLOWS =         -11422.52
             --------                                   --------

 TOTAL STORAGE CHANGE =        -265702.45         STORAGE CHANGE =         -11423.50
       --------------                             --------------
         LAND SURFACE =         252566.27           LAND SURFACE =                  
            SOIL ZONE =        1065046.38              SOIL ZONE =            148.75
     UNSATURATED ZONE =       -2176808.87       UNSATURATED ZONE =         -15968.14
       SATURATED ZONE =         593493.78         SATURATED ZONE =           4395.89

 OVERALL BUDGET ERROR =          -1717.32           BUDGET ERROR =              0.98


  PERCENT DISCREPANCY =             -0.08    PERCENT DISCREPANCY =              0.01



1
 SUMMARY VOLUMETRIC BUDGET FOR GSFLOW 
 DATE: 12 23 1990              CUMULATIVE TIME STEP:      23
 MODFLOW STRESS PERIOD      4     CURRENT TIME STEP:      84     ITERATIONS:       6

 -----------------------------------------------------------------------------------

   CUMULATIVE VOLUMES               L**3   RATES FOR THIS TIME STEP           L**3/T
   ------------------                      ------------------------

                                     IN                                         IN
                                     --                                         --
        PRECIPITATION =        2276236.55          PRECIPITATION =                  
           STREAMFLOW =                               STREAMFLOW =                  
     GW BOUNDARY FLOW =              0.08       GW BOUNDARY FLOW =              0.04


                                    OUT                                        OUT
                                    ---                                        ---
   EVAPOTRANSPIRATION =        1326144.99     EVAPOTRANSPIRATION =                  
           STREAMFLOW =         824660.66             STREAMFLOW =          11487.71
     GW BOUNDARY FLOW =           3020.18       GW BOUNDARY FLOW =             35.57

   INFLOWS - OUTFLOWS =         122410.80     INFLOWS - OUTFLOWS =         -11523.24
             --------                                   --------

 TOTAL STORAGE CHANGE =         124127.08         STORAGE CHANGE =         -11523.09
       --------------                             --------------
         LAND SURFACE =         722784.34           LAND SURFACE =                  
            SOIL ZONE =        1066132.56              SOIL ZONE =            158.87
     UNSATURATED ZONE =       -2286262.09       UNSATURATED ZONE =         -15390.69
       SATURATED ZONE =         621472.28         SATURATED ZONE =           3708.73

 OVERALL BUDGET ERROR =          -1716.28           BUDGET ERROR =             -0.15


  PERCENT DISCREPANCY =             -0.08    PERCENT DISCREPANCY =             -0.00



1
 SUMMARY VOLUMETRIC BUDGET FOR GSFLOW 
 DATE: 12 30 1990              CUMULATIVE TIME STEP:      30
 MODFLOW STRESS PERIOD      4     CURRENT TIME STEP:      91     ITERATIONS:       5

 -----------------------------------------------------------------------------------

   CUMULATIVE VOLUMES               L**3   RATES FOR THIS TIME STEP           L**3/T
   ------------------                      ------------------------

                                     IN                                         IN
                                     --                                         --
        PRECIPITATION =        2276236.55          PRECIPITATION =                  
           STREAMFLOW =                               STREAMFLOW =                  
     GW BOUNDARY FLOW =              0.77       GW BOUNDARY FLOW =              0.14


                                    OUT                                        OUT
                                    ---                                        ---
   EVAPOTRANSPIRATION =        1326712.49     EVAPOTRANSPIRATION =                  
           STREAMFLOW =         905474.08             STREAMFLOW =          11587.71
     GW BOUNDARY FLOW =           3269.28       GW BOUNDARY FLOW =             35.60

   INFLOWS - OUTFLOWS =          40781.47     INFLOWS - OUTFLOWS =         -11623.16
             --------                                   --------

 TOTAL STORAGE CHANGE =          42505.38         STORAGE CHANGE =         -11621.10
       --------------                             --------------
         LAND SURFACE =         722216.94           LAND SURFACE =                  
            SOIL ZONE =        1067289.07              SOIL ZONE =            170.47
     UNSATURATED ZONE =       -2391805.96       UNSATURATED ZONE =         -14848.79
       SATURATED ZONE =         644805.32         SATURATED ZONE =           3057.22

 OVERALL BUDGET ERROR =          -1723.91           BUDGET ERROR =             -2.06


  PERCENT DISCREPANCY =             -0.08    PERCENT DISCREPANCY =             -0.02



1
 SUMMARY VOLUMETRIC BUDGET FOR GSFLOW 
 DATE: 01 06 1991              CUMULATIVE TIME STEP:       6
 MODFLOW STRESS PERIOD      5     CURRENT TIME STEP:      98     ITERATIONS:       5

 -----------------------------------------------------------------------------------

   CUMULATIVE VOLUMES               L**3   RATES FOR THIS TIME STEP           L**3/T
   ------------------                      ------------------------

                                     IN                                         IN
                                     --                                         --
        PRECIPITATION =        2276236.55          PRECIPITATION =                  
           STREAMFLOW =                               STREAMFLOW =                  
     GW BOUNDARY FLOW =              2.09       GW BOUNDARY FLOW =              0.22


                                    OUT                                        OUT
                                    ---                                        ---
   EVAPOTRANSPIRATION =        1353713.47     EVAPOTRANSPIRATION =           3180.55
           STREAMFLOW =         986934.54             STREAMFLOW =          11669.43
     GW BOUNDARY FLOW =           3519.15       GW BOUNDARY FLOW =             35.75

   INFLOWS - OUTFLOWS =         -67928.51     INFLOWS - OUTFLOWS =         -14885.51
             --------                                   --------

 TOTAL STORAGE CHANGE =         -66182.35         STORAGE CHANGE =         -14881.42
       --------------                             --------------
         LAND SURFACE =         592099.78           LAND SURFACE =          -8106.31
            SOIL ZONE =        1171673.41              SOIL ZONE =           5108.34
     UNSATURATED ZONE =       -2493407.83       UNSATURATED ZONE =         -14284.94
       SATURATED ZONE =         663452.29         SATURATED ZONE =           2401.48

 OVERALL BUDGET ERROR =          -1746.16           BUDGET ERROR =             -4.09


  PERCENT DISCREPANCY =             -0.07    PERCENT DISCREPANCY =             -0.03



1
 SUMMARY VOLUMETRIC BUDGET FOR GSFLOW 
 DATE: 01 13 1991              CUMULATIVE TIME STEP:      13
 MODFLOW STRESS PERIOD      5     CURRENT TIME STEP:     105     ITERATIONS:       6

 -----------------------------------------------------------------------------------

   CUMULATIVE VOLUMES               L**3   RATES FOR THIS TIME STEP           L**3/T
   ------------------                      ------------------------

                                     IN                                         IN
                                     --                                         --
        PRECIPITATION =        2596386.94          PRECIPITATION =          10327.43
           STREAMFLOW =                               STREAMFLOW =                  
     GW BOUNDARY FLOW =              4.02       GW BOUNDARY FLOW =              0.31


                                    OUT                                        OUT
                                    ---                                        ---
   EVAPOTRANSPIRATION =        1420508.49     EVAPOTRANSPIRATION =          18635.21
           STREAMFLOW =        1068586.66             STREAMFLOW =          11579.62
     GW BOUNDARY FLOW =           3769.36       GW BOUNDARY FLOW =             35.73

   INFLOWS - OUTFLOWS =         103526.46     INFLOWS - OUTFLOWS =         -19922.81
             --------                                   --------

 TOTAL STORAGE CHANGE =         105302.88         STORAGE CHANGE =         -19919.93
       --------------                             --------------
         LAND SURFACE =         529885.08           LAND SURFACE =        -135264.70
            SOIL ZONE =        1489878.70              SOIL ZONE =         127943.90
     UNSATURATED ZONE =       -2590969.22       UNSATURATED ZONE =         -13732.89
       SATURATED ZONE =         676508.33         SATURATED ZONE =           1133.77

 OVERALL BUDGET ERROR =          -1776.42           BUDGET ERROR =             -2.88


  PERCENT DISCREPANCY =             -0.07    PERCENT DISCREPANCY =             -0.01



1
 SUMMARY VOLUMETRIC BUDGET FOR GSFLOW 
 DATE: 01 20 1991              CUMULATIVE TIME STEP:      20
 MODFLOW STRESS PERIOD      5     CURRENT TIME STEP:     112     ITERATIONS:       5

 -----------------------------------------------------------------------------------

   CUMULATIVE VOLUMES               L**3   RATES FOR THIS TIME STEP           L**3/T
   ------------------                      ------------------------

                                     IN                                         IN
                                     --                                         --
        PRECIPITATION =        2596386.94          PRECIPITATION =                  
           STREAMFLOW =                               STREAMFLOW =                  
     GW BOUNDARY FLOW =              6.55       GW BOUNDARY FLOW =              0.40


                                    OUT                                        OUT
                                    ---                                        ---
   EVAPOTRANSPIRATION =        1497642.16     EVAPOTRANSPIRATION =           2455.54
           STREAMFLOW =        1150792.30             STREAMFLOW =          11777.08
     GW BOUNDARY FLOW =           4019.59       GW BOUNDARY FLOW =             35.75

   INFLOWS - OUTFLOWS =         -56060.56     INFLOWS - OUTFLOWS =         -14267.97
             --------                                   --------

 TOTAL STORAGE CHANGE =         -54239.11         STORAGE CHANGE =         -14260.39
       --------------                             --------------
         LAND SURFACE =         356897.61           LAND SURFACE =           -433.81
            SOIL ZONE =        1587703.67              SOIL ZONE =          -1802.58
     UNSATURATED ZONE =       -2684663.87       UNSATURATED ZONE =         -13160.63
       SATURATED ZONE =         685823.48         SATURATED ZONE =           1136.62

 OVERALL BUDGET ERROR =          -1821.45           BUDGET ERROR =             -7.57


  PERCENT DISCREPANCY =             -0.07    PERCENT DISCREPANCY =             -0.05



1
 SUMMARY VOLUMETRIC BUDGET FOR GSFLOW 
 DATE: 01 27 1991              CUMULATIVE TIME STEP:      27
 MODFLOW STRESS PERIOD      5     CURRENT TIME STEP:     119     ITERATIONS:       5

 -----------------------------------------------------------------------------------

   CUMULATIVE VOLUMES               L**3   RATES FOR THIS TIME STEP           L**3/T
   ------------------                      ------------------------

                                     IN                                         IN
                                     --                                         --
        PRECIPITATION =        2596386.94          PRECIPITATION =                  
           STREAMFLOW =                               STREAMFLOW =                  
     GW BOUNDARY FLOW =              9.65       GW BOUNDARY FLOW =              0.48


                                    OUT                                        OUT
                                    ---                                        ---
   EVAPOTRANSPIRATION =        1523527.31     EVAPOTRANSPIRATION =           1704.59
           STREAMFLOW =        1233444.22             STREAMFLOW =          11840.17
     GW BOUNDARY FLOW =           4269.78       GW BOUNDARY FLOW =             35.74

   INFLOWS - OUTFLOWS =        -164844.72     INFLOWS - OUTFLOWS =         -13580.02
             --------                                   --------

 TOTAL STORAGE CHANGE =        -162964.04         STORAGE CHANGE =         -13571.17
       --------------                             --------------
         LAND SURFACE =         323033.10           LAND SURFACE =           -547.84
            SOIL ZONE =        1597421.35              SOIL ZONE =           -949.73
     UNSATURATED ZONE =       -2774846.12       UNSATURATED ZONE =         -12667.27
       SATURATED ZONE =         691427.63         SATURATED ZONE =            593.66

 OVERALL BUDGET ERROR =          -1880.68           BUDGET ERROR =             -8.85


  PERCENT DISCREPANCY =             -0.07    PERCENT DISCREPANCY =             -0.07



1
 SUMMARY VOLUMETRIC BUDGET FOR GSFLOW 
 DATE: 02 03 1991              CUMULATIVE TIME STEP:       3
 MODFLOW STRESS PERIOD      6     CURRENT TIME STEP:     126     ITERATIONS:       7

 -----------------------------------------------------------------------------------

   CUMULATIVE VOLUMES               L**3   RATES FOR THIS TIME STEP           L**3/T
   ------------------                      ------------------------

                                     IN                                         IN
                                     --                                         --
        PRECIPITATION =        3228422.31          PRECIPITATION =          30459.53
           STREAMFLOW =                               STREAMFLOW =                  
     GW BOUNDARY FLOW =             13.31       GW BOUNDARY FLOW =              0.55


                                    OUT                                        OUT
                                    ---                                        ---
   EVAPOTRANSPIRATION =        1630612.54     EVAPOTRANSPIRATION =          21417.68
           STREAMFLOW =        1315270.08             STREAMFLOW =          11722.14
     GW BOUNDARY FLOW =           4519.87       GW BOUNDARY FLOW =             35.72

   INFLOWS - OUTFLOWS =         278033.13     INFLOWS - OUTFLOWS =          -2715.46
             --------                                   --------

 TOTAL STORAGE CHANGE =         279954.11         STORAGE CHANGE =          -2713.44
       --------------                             --------------
         LAND SURFACE =         157683.43           LAND SURFACE =         -26376.34
            SOIL ZONE =        2290400.58              SOIL ZONE =          35777.24
     UNSATURATED ZONE =       -2861756.77       UNSATURATED ZONE =         -12204.86
       SATURATED ZONE =         693626.86         SATURATED ZONE =             90.53

 OVERALL BUDGET ERROR =          -1920.98           BUDGET ERROR =             -2.02


  PERCENT DISCREPANCY =             -0.06    PERCENT DISCREPANCY =             -0.01



1
 SUMMARY VOLUMETRIC BUDGET FOR GSFLOW 
 DATE: 02 10 1991              CUMULATIVE TIME STEP:      10
 MODFLOW STRESS PERIOD      6     CURRENT TIME STEP:     133     ITERATIONS:       5

 -----------------------------------------------------------------------------------

   CUMULATIVE VOLUMES               L**3   RATES FOR THIS TIME STEP           L**3/T
   ------------------                      ------------------------

                                     IN                                         IN
                                     --                                         --
        PRECIPITATION =        3510173.01          PRECIPITATION =                  
           STREAMFLOW =                               STREAMFLOW =                  
     GW BOUNDARY FLOW =             17.49       GW BOUNDARY FLOW =              0.63


                                    OUT                                        OUT
                                    ---                                        ---
   EVAPOTRANSPIRATION =        1798030.90     EVAPOTRANSPIRATION =          25651.48
           STREAMFLOW =        1398168.65             STREAMFLOW =          11876.81
     GW BOUNDARY FLOW =           4769.87       GW BOUNDARY FLOW =             35.71

   INFLOWS - OUTFLOWS =         309221.08     INFLOWS - OUTFLOWS =         -37563.37
             --------                                   --------

 TOTAL STORAGE CHANGE =         311207.29         STORAGE CHANGE =         -37551.75
       --------------                             --------------
         LAND SURFACE =          75877.11           LAND SURFACE =          -8469.89
            SOIL ZONE =        2488471.39              SOIL ZONE =         -16904.20
     UNSATURATED ZONE =       -2945163.98       UNSATURATED ZONE =         -11727.71
       SATURATED ZONE =         692022.77         SATURATED ZONE =           -449.96

 OVERALL BUDGET ERROR =          -1986.21           BUDGET ERROR =            -11.61


  PERCENT DISCREPANCY =             -0.06    PERCENT DISCREPANCY =             -0.03



1
 SUMMARY VOLUMETRIC BUDGET FOR GSFLOW 
 DATE: 02 17 1991              CUMULATIVE TIME STEP:      17
 MODFLOW STRESS PERIOD      6     CURRENT TIME STEP:     140     ITERATIONS:       6

 -----------------------------------------------------------------------------------

   CUMULATIVE VOLUMES               L**3   RATES FOR THIS TIME STEP           L**3/T
   ------------------                      ------------------------

                                     IN                                         IN
                                     --                                         --
        PRECIPITATION =        3510173.01          PRECIPITATION =                  
           STREAMFLOW =                               STREAMFLOW =                  
     GW BOUNDARY FLOW =             22.16       GW BOUNDARY FLOW =              0.70


                                    OUT                                        OUT
                                    ---                                        ---
   EVAPOTRANSPIRATION =        2041065.87     EVAPOTRANSPIRATION =          23719.99
           STREAMFLOW =        1480271.99             STREAMFLOW =          11838.04
     GW BOUNDARY FLOW =           5019.73       GW BOUNDARY FLOW =             35.67

   INFLOWS - OUTFLOWS =         -16162.42     INFLOWS - OUTFLOWS =         -35593.00
             --------                                   --------

 TOTAL STORAGE CHANGE =         -14129.83         STORAGE CHANGE =         -35587.09
       --------------                             --------------
         LAND SURFACE =          17890.99           LAND SURFACE =          -1143.67
            SOIL ZONE =        2305098.43              SOIL ZONE =         -22417.48
     UNSATURATED ZONE =       -3025020.85       UNSATURATED ZONE =         -11122.80
       SATURATED ZONE =         687901.61         SATURATED ZONE =           -903.15

 OVERALL BUDGET ERROR =          -2032.59           BUDGET ERROR =             -5.91


  PERCENT DISCREPANCY =             -0.06    PERCENT DISCREPANCY =             -0.02



1
 SUMMARY VOLUMETRIC BUDGET FOR GSFLOW 
 DATE: 02 24 1991              CUMULATIVE TIME STEP:      24
 MODFLOW STRESS PERIOD      6     CURRENT TIME STEP:     147     ITERATIONS:       5

 -----------------------------------------------------------------------------------

   CUMULATIVE VOLUMES               L**3   RATES FOR THIS TIME STEP           L**3/T
   ------------------                      ------------------------

                                     IN                                         IN
                                     --                                         --
        PRECIPITATION =        3510173.01          PRECIPITATION =                  
           STREAMFLOW =                               STREAMFLOW =                  
     GW BOUNDARY FLOW =             27.31       GW BOUNDARY FLOW =              0.76


                                    OUT                                        OUT
                                    ---                                        ---
   EVAPOTRANSPIRATION =        2254749.19     EVAPOTRANSPIRATION =          21654.74
           STREAMFLOW =        1563574.24             STREAMFLOW =          11916.78
     GW BOUNDARY FLOW =           5268.76       GW BOUNDARY FLOW =             35.50

   INFLOWS - OUTFLOWS =        -313391.87     INFLOWS - OUTFLOWS =         -33606.27
             --------                                   --------

 TOTAL STORAGE CHANGE =        -311266.16         STORAGE CHANGE =         -33591.15
       --------------                             --------------
         LAND SURFACE =           7435.72           LAND SURFACE =           -217.69
            SOIL ZONE =        2103248.12              SOIL ZONE =         -21203.05
     UNSATURATED ZONE =       -3101231.75       UNSATURATED ZONE =         -10701.78
       SATURATED ZONE =         679281.74         SATURATED ZONE =          -1468.62

 OVERALL BUDGET ERROR =          -2125.71           BUDGET ERROR =            -15.11


  PERCENT DISCREPANCY =             -0.06    PERCENT DISCREPANCY =             -0.04



1
 SUMMARY VOLUMETRIC BUDGET FOR GSFLOW 
 DATE: 03 03 1991              CUMULATIVE TIME STEP:       3
 MODFLOW STRESS PERIOD      7     CURRENT TIME STEP:     154     ITERATIONS:       5

 -----------------------------------------------------------------------------------

   CUMULATIVE VOLUMES               L**3   RATES FOR THIS TIME STEP           L**3/T
   ------------------                      ------------------------

                                     IN                                         IN
                                     --                                         --
        PRECIPITATION =        6220189.63          PRECIPITATION =        1243187.24
           STREAMFLOW =                               STREAMFLOW =                  
     GW BOUNDARY FLOW =             32.91       GW BOUNDARY FLOW =              0.83


                                    OUT                                        OUT
                                    ---                                        ---
   EVAPOTRANSPIRATION =        2406898.84     EVAPOTRANSPIRATION =           8346.94
           STREAMFLOW =        1646666.05             STREAMFLOW =          11821.35
     GW BOUNDARY FLOW =           5516.59       GW BOUNDARY FLOW =             35.32

   INFLOWS - OUTFLOWS =        2161141.06     INFLOWS - OUTFLOWS =        1222984.45
             --------                                   --------

 TOTAL STORAGE CHANGE =        2163368.28         STORAGE CHANGE =        1223000.83
       --------------                             --------------
         LAND SURFACE =        2352423.56           LAND SURFACE =         893797.52
            SOIL ZONE =        2319961.81              SOIL ZONE =         341852.00
     UNSATURATED ZONE =       -3174402.16       UNSATURATED ZONE =         -10288.22
       SATURATED ZONE =         665385.07         SATURATED ZONE =          -2360.48

 OVERALL BUDGET ERROR =          -2227.22           BUDGET ERROR =            -16.38


  PERCENT DISCREPANCY =             -0.04    PERCENT DISCREPANCY =             -0.00



1
 SUMMARY VOLUMETRIC BUDGET FOR GSFLOW 
 DATE: 03 10 1991              CUMULATIVE TIME STEP:      10
 MODFLOW STRESS PERIOD      7     CURRENT TIME STEP:     161     ITERATIONS:       5

 -----------------------------------------------------------------------------------

   CUMULATIVE VOLUMES               L**3   RATES FOR THIS TIME STEP           L**3/T
   ------------------                      ------------------------

                                     IN                                         IN
                                     --                                         --
        PRECIPITATION =        8746030.42          PRECIPITATION =          32888.55
           STREAMFLOW =                               STREAMFLOW =                  
     GW BOUNDARY FLOW =             38.95       GW BOUNDARY FLOW =              0.89


                                    OUT                                        OUT
                                    ---                                        ---
   EVAPOTRANSPIRATION =        2471020.66     EVAPOTRANSPIRATION =           7391.37
           STREAMFLOW =        1755743.40             STREAMFLOW =          12559.80
     GW BOUNDARY FLOW =           5763.98       GW BOUNDARY FLOW =             35.23

   INFLOWS - OUTFLOWS =        4513541.32     INFLOWS - OUTFLOWS =          12903.04
             --------                                   --------

 TOTAL STORAGE CHANGE =        4515846.08         STORAGE CHANGE =          12921.04
       --------------                             --------------
         LAND SURFACE =        2489799.31           LAND SURFACE =         -20139.51
            SOIL ZONE =        4566884.79              SOIL ZONE =          36673.42
     UNSATURATED ZONE =       -3191999.52       UNSATURATED ZONE =          -1401.56
       SATURATED ZONE =         651161.50         SATURATED ZONE =          -2211.30

 OVERALL BUDGET ERROR =          -2304.75           BUDGET ERROR =            -18.00


  PERCENT DISCREPANCY =             -0.03    PERCENT DISCREPANCY =             -0.05



1
 SUMMARY VOLUMETRIC BUDGET FOR GSFLOW 
 DATE: 03 17 1991              CUMULATIVE TIME STEP:      17
 MODFLOW STRESS PERIOD      7     CURRENT TIME STEP:     168     ITERATIONS:       5

 -----------------------------------------------------------------------------------

   CUMULATIVE VOLUMES               L**3   RATES FOR THIS TIME STEP           L**3/T
   ------------------                      ------------------------

                                     IN                                         IN
                                     --                                         --
        PRECIPITATION =        9897129.71          PRECIPITATION =         157865.04
           STREAMFLOW =                               STREAMFLOW =                  
     GW BOUNDARY FLOW =             45.41       GW BOUNDARY FLOW =              0.95


                                    OUT                                        OUT
                                    ---                                        ---
   EVAPOTRANSPIRATION =        2494486.40     EVAPOTRANSPIRATION =           6885.62
           STREAMFLOW =        1845005.02             STREAMFLOW =          12809.26
     GW BOUNDARY FLOW =           6010.16       GW BOUNDARY FLOW =             35.11

   INFLOWS - OUTFLOWS =        5551673.54     INFLOWS - OUTFLOWS =         138136.00
             --------                                   --------

 TOTAL STORAGE CHANGE =        5554087.97         STORAGE CHANGE =         138155.18
       --------------                             --------------
         LAND SURFACE =        3617387.89           LAND SURFACE =         151296.14
            SOIL ZONE =        4504508.69              SOIL ZONE =          -8536.36
     UNSATURATED ZONE =       -3203498.13       UNSATURATED ZONE =          -2062.35
       SATURATED ZONE =         635689.52         SATURATED ZONE =          -2542.24

 OVERALL BUDGET ERROR =          -2414.43           BUDGET ERROR =            -19.18


  PERCENT DISCREPANCY =             -0.02    PERCENT DISCREPANCY =             -0.01



1
 SUMMARY VOLUMETRIC BUDGET FOR GSFLOW 
 DATE: 03 24 1991              CUMULATIVE TIME STEP:      24
 MODFLOW STRESS PERIOD      7     CURRENT TIME STEP:     175     ITERATIONS:       5

 -----------------------------------------------------------------------------------

   CUMULATIVE VOLUMES               L**3   RATES FOR THIS TIME STEP           L**3/T
   ------------------                      ------------------------

                                     IN                                         IN
                                     --                                         --
        PRECIPITATION =        1.1673D+07          PRECIPITATION =        1230031.83
           STREAMFLOW =                               STREAMFLOW =                  
     GW BOUNDARY FLOW =             52.28       GW BOUNDARY FLOW =              1.01


                                    OUT                                        OUT
                                    ---                                        ---
   EVAPOTRANSPIRATION =        2529124.86     EVAPOTRANSPIRATION =           4289.95
           STREAMFLOW =        1936254.47             STREAMFLOW =          13207.07
     GW BOUNDARY FLOW =           6255.46       GW BOUNDARY FLOW =             35.00

   INFLOWS - OUTFLOWS =        7201528.99     INFLOWS - OUTFLOWS =        1212500.83
             --------                                   --------

 TOTAL STORAGE CHANGE =        7204057.83         STORAGE CHANGE =        1212520.35
       --------------                             --------------
         LAND SURFACE =        5347521.54           LAND SURFACE =        1227877.70
            SOIL ZONE =        4457540.43              SOIL ZONE =         -10424.39
     UNSATURATED ZONE =       -3219099.42       UNSATURATED ZONE =          -2390.00
       SATURATED ZONE =         618095.28         SATURATED ZONE =          -2542.96

 OVERALL BUDGET ERROR =          -2528.83           BUDGET ERROR =            -19.52


  PERCENT DISCREPANCY =             -0.02    PERCENT DISCREPANCY =             -0.00



1
 SUMMARY VOLUMETRIC BUDGET FOR GSFLOW 
 DATE: 03 31 1991              CUMULATIVE TIME STEP:      31
 MODFLOW STRESS PERIOD      7     CURRENT TIME STEP:     182     ITERATIONS:       5

 -----------------------------------------------------------------------------------

   CUMULATIVE VOLUMES               L**3   RATES FOR THIS TIME STEP           L**3/T
   ------------------                      ------------------------

                                     IN                                         IN
                                     --                                         --
        PRECIPITATION =        1.2495D+07          PRECIPITATION =                  
           STREAMFLOW =                               STREAMFLOW =                  
     GW BOUNDARY FLOW =             59.55       GW BOUNDARY FLOW =              1.06


                                    OUT                                        OUT
                                    ---                                        ---
   EVAPOTRANSPIRATION =        2650144.38     EVAPOTRANSPIRATION =          47925.31
           STREAMFLOW =        2031428.53             STREAMFLOW =          14270.04
     GW BOUNDARY FLOW =           6500.07       GW BOUNDARY FLOW =             34.92

   INFLOWS - OUTFLOWS =        7807311.85     INFLOWS - OUTFLOWS =         -62229.21
             --------                                   --------

 TOTAL STORAGE CHANGE =        7809979.18         STORAGE CHANGE =         -62209.13
       --------------                             --------------
         LAND SURFACE =        5892155.24           LAND SURFACE =        -150773.76
            SOIL ZONE =        4552603.92              SOIL ZONE =          92357.45
     UNSATURATED ZONE =       -3234628.58       UNSATURATED ZONE =          -1170.49
       SATURATED ZONE =         599848.60         SATURATED ZONE =          -2622.33

 OVERALL BUDGET ERROR =          -2667.33           BUDGET ERROR =            -20.08


  PERCENT DISCREPANCY =             -0.02    PERCENT DISCREPANCY =             -0.03



1
 SUMMARY VOLUMETRIC BUDGET FOR GSFLOW 
 DATE: 04 07 1991              CUMULATIVE TIME STEP:       7
 MODFLOW STRESS PERIOD      8     CURRENT TIME STEP:     189     ITERATIONS:       6

 -----------------------------------------------------------------------------------

   CUMULATIVE VOLUMES               L**3   RATES FOR THIS TIME STEP           L**3/T
   ------------------                      ------------------------

                                     IN                                         IN
                                     --                                         --
        PRECIPITATION =        1.3018D+07          PRECIPITATION =                  
           STREAMFLOW =                               STREAMFLOW =                  
     GW BOUNDARY FLOW =             67.18       GW BOUNDARY FLOW =              1.11


                                    OUT                                        OUT
                                    ---                                        ---
   EVAPOTRANSPIRATION =        2958027.65     EVAPOTRANSPIRATION =          15898.60
           STREAMFLOW =        2261958.54             STREAMFLOW =          42843.05
     GW BOUNDARY FLOW =           6746.19       GW BOUNDARY FLOW =             35.32

   INFLOWS - OUTFLOWS =        7791071.54     INFLOWS - OUTFLOWS =         -58775.86
             --------                                   --------

 TOTAL STORAGE CHANGE =        7793825.07         STORAGE CHANGE =         -58767.29
       --------------                             --------------
         LAND SURFACE =        4252635.07           LAND SURFACE =         -72897.15
            SOIL ZONE =        6157328.24              SOIL ZONE =           4873.00
     UNSATURATED ZONE =       -3199923.15       UNSATURATED ZONE =          11054.69
       SATURATED ZONE =         583784.91         SATURATED ZONE =          -1797.82

 OVERALL BUDGET ERROR =          -2753.53           BUDGET ERROR =             -8.58


  PERCENT DISCREPANCY =             -0.02    PERCENT DISCREPANCY =             -0.01



1
 SUMMARY VOLUMETRIC BUDGET FOR GSFLOW 
 DATE: 04 14 1991              CUMULATIVE TIME STEP:      14
 MODFLOW STRESS PERIOD      8     CURRENT TIME STEP:     196     ITERATIONS:       7

 -----------------------------------------------------------------------------------

   CUMULATIVE VOLUMES               L**3   RATES FOR THIS TIME STEP           L**3/T
   ------------------                      ------------------------

                                     IN                                         IN
                                     --                                         --
        PRECIPITATION =        1.3018D+07          PRECIPITATION =                  
           STREAMFLOW =                               STREAMFLOW =                  
     GW BOUNDARY FLOW =             75.14       GW BOUNDARY FLOW =              1.16


                                    OUT                                        OUT
                                    ---                                        ---
   EVAPOTRANSPIRATION =        3141950.48     EVAPOTRANSPIRATION =          42060.22
           STREAMFLOW =        2690275.41             STREAMFLOW =          74290.36
     GW BOUNDARY FLOW =           6994.60       GW BOUNDARY FLOW =             35.60

   INFLOWS - OUTFLOWS =        7178591.38     INFLOWS - OUTFLOWS =        -116385.02
             --------                                   --------

 TOTAL STORAGE CHANGE =        7181378.73         STORAGE CHANGE =        -116382.07
       --------------                             --------------
         LAND SURFACE =        3592422.64           LAND SURFACE =        -191140.97
            SOIL ZONE =        6139893.74              SOIL ZONE =          65587.87
     UNSATURATED ZONE =       -3126046.56       UNSATURATED ZONE =          10096.98
       SATURATED ZONE =         575108.91         SATURATED ZONE =           -925.95

 OVERALL BUDGET ERROR =          -2787.35           BUDGET ERROR =             -2.95


  PERCENT DISCREPANCY =             -0.02    PERCENT DISCREPANCY =             -0.00



1
 SUMMARY VOLUMETRIC BUDGET FOR GSFLOW 
 DATE: 04 21 1991              CUMULATIVE TIME STEP:      21
 MODFLOW STRESS PERIOD      8     CURRENT TIME STEP:     203     ITERATIONS:       9

 -----------------------------------------------------------------------------------

   CUMULATIVE VOLUMES               L**3   RATES FOR THIS TIME STEP           L**3/T
   ------------------                      ------------------------

                                     IN                                         IN
                                     --                                         --
        PRECIPITATION =        1.3034D+07          PRECIPITATION =                  
           STREAMFLOW =                               STREAMFLOW =                  
     GW BOUNDARY FLOW =             83.40       GW BOUNDARY FLOW =              1.20


                                    OUT                                        OUT
                                    ---                                        ---
   EVAPOTRANSPIRATION =        3395571.49     EVAPOTRANSPIRATION =          46843.68
           STREAMFLOW =        3243756.54             STREAMFLOW =          91020.72
     GW BOUNDARY FLOW =           7243.68       GW BOUNDARY FLOW =             35.67

   INFLOWS - OUTFLOWS =        6387573.79     INFLOWS - OUTFLOWS =        -137898.87
             --------                                   --------

 TOTAL STORAGE CHANGE =        6390376.33         STORAGE CHANGE =        -137897.91
       --------------                             --------------
         LAND SURFACE =        2435410.72           LAND SURFACE =        -213938.54
            SOIL ZONE =        6436455.11              SOIL ZONE =          64425.68
     UNSATURATED ZONE =       -3051886.23       UNSATURATED ZONE =          12033.05
       SATURATED ZONE =         570396.73         SATURATED ZONE =           -418.10

 OVERALL BUDGET ERROR =          -2802.53           BUDGET ERROR =             -0.96


  PERCENT DISCREPANCY =             -0.02    PERCENT DISCREPANCY =             -0.00



1
 SUMMARY VOLUMETRIC BUDGET FOR GSFLOW 
 DATE: 04 28 1991              CUMULATIVE TIME STEP:      28
 MODFLOW STRESS PERIOD      8     CURRENT TIME STEP:     210     ITERATIONS:       6

 -----------------------------------------------------------------------------------

   CUMULATIVE VOLUMES               L**3   RATES FOR THIS TIME STEP           L**3/T
   ------------------                      ------------------------

                                     IN                                         IN
                                     --                                         --
        PRECIPITATION =        1.3303D+07          PRECIPITATION =                  
           STREAMFLOW =                               STREAMFLOW =                  
     GW BOUNDARY FLOW =             91.94       GW BOUNDARY FLOW =              1.24


                                    OUT                                        OUT
                                    ---                                        ---
   EVAPOTRANSPIRATION =        3663673.45     EVAPOTRANSPIRATION =          58070.50
           STREAMFLOW =        3893043.71             STREAMFLOW =          92470.98
     GW BOUNDARY FLOW =           7493.06       GW BOUNDARY FLOW =             35.57

   INFLOWS - OUTFLOWS =        5739312.23     INFLOWS - OUTFLOWS =        -150575.82
             --------                                   --------

 TOTAL STORAGE CHANGE =        5742129.32         STORAGE CHANGE =        -150574.26
       --------------                             --------------
         LAND SURFACE =        1696862.82           LAND SURFACE =        -133863.59
            SOIL ZONE =        6443546.46              SOIL ZONE =         -28112.60
     UNSATURATED ZONE =       -2967710.39       UNSATURATED ZONE =          11470.77
       SATURATED ZONE =         569430.44         SATURATED ZONE =            -68.85

 OVERALL BUDGET ERROR =          -2817.08           BUDGET ERROR =             -1.56


  PERCENT DISCREPANCY =             -0.02    PERCENT DISCREPANCY =             -0.00



1
 SUMMARY VOLUMETRIC BUDGET FOR GSFLOW 
 DATE: 05 05 1991              CUMULATIVE TIME STEP:       5
 MODFLOW STRESS PERIOD      9     CURRENT TIME STEP:     217     ITERATIONS:       7

 -----------------------------------------------------------------------------------

   CUMULATIVE VOLUMES               L**3   RATES FOR THIS TIME STEP           L**3/T
   ------------------                      ------------------------

                                     IN                                         IN
                                     --                                         --
        PRECIPITATION =        1.3510D+07          PRECIPITATION =                  
           STREAMFLOW =                               STREAMFLOW =                  
     GW BOUNDARY FLOW =            100.74       GW BOUNDARY FLOW =              1.27


                                    OUT                                        OUT
                                    ---                                        ---
   EVAPOTRANSPIRATION =        4040431.21     EVAPOTRANSPIRATION =          90182.26
           STREAMFLOW =        4465204.71             STREAMFLOW =          83109.20
     GW BOUNDARY FLOW =           7740.75       GW BOUNDARY FLOW =             35.33

   INFLOWS - OUTFLOWS =        4996432.20     INFLOWS - OUTFLOWS =        -173325.52
             --------                                   --------

 TOTAL STORAGE CHANGE =        4999257.55         STORAGE CHANGE =        -173324.90
       --------------                             --------------
         LAND SURFACE =        1003116.62           LAND SURFACE =        -147007.11
            SOIL ZONE =        6322254.98              SOIL ZONE =         -36517.73
     UNSATURATED ZONE =       -2895377.77       UNSATURATED ZONE =          10170.34
       SATURATED ZONE =         569263.72         SATURATED ZONE =             29.60

 OVERALL BUDGET ERROR =          -2825.35           BUDGET ERROR =             -0.62


  PERCENT DISCREPANCY =             -0.02    PERCENT DISCREPANCY =             -0.00



1
 SUMMARY VOLUMETRIC BUDGET FOR GSFLOW 
 DATE: 05 12 1991              CUMULATIVE TIME STEP:      12
 MODFLOW STRESS PERIOD      9     CURRENT TIME STEP:     224     ITERATIONS:       7

 -----------------------------------------------------------------------------------

   CUMULATIVE VOLUMES               L**3   RATES FOR THIS TIME STEP           L**3/T
   ------------------                      ------------------------

                                     IN                                         IN
                                     --                                         --
        PRECIPITATION =        1.4029D+07          PRECIPITATION =                  
           STREAMFLOW =                               STREAMFLOW =                  
     GW BOUNDARY FLOW =            109.80       GW BOUNDARY FLOW =              1.31


                                    OUT                                        OUT
                                    ---                                        ---
   EVAPOTRANSPIRATION =        4435818.48     EVAPOTRANSPIRATION =          68750.33
           STREAMFLOW =        5000862.18             STREAMFLOW =          85438.59
     GW BOUNDARY FLOW =           7986.78       GW BOUNDARY FLOW =             35.17

   INFLOWS - OUTFLOWS =        4584664.52     INFLOWS - OUTFLOWS =        -154222.78
             --------                                   --------

 TOTAL STORAGE CHANGE =        4587492.99         STORAGE CHANGE =        -154222.35
       --------------                             --------------
         LAND SURFACE =         555531.39           LAND SURFACE =        -204072.74
            SOIL ZONE =        6293631.84              SOIL ZONE =          40846.52
     UNSATURATED ZONE =       -2833495.80       UNSATURATED ZONE =           8752.37
       SATURATED ZONE =         571825.57         SATURATED ZONE =            251.50

 OVERALL BUDGET ERROR =          -2828.47           BUDGET ERROR =             -0.43


  PERCENT DISCREPANCY =             -0.02    PERCENT DISCREPANCY =             -0.00



1
 SUMMARY VOLUMETRIC BUDGET FOR GSFLOW 
 DATE: 05 19 1991              CUMULATIVE TIME STEP:      19
 MODFLOW STRESS PERIOD      9     CURRENT TIME STEP:     231     ITERATIONS:       7

 -----------------------------------------------------------------------------------

   CUMULATIVE VOLUMES               L**3   RATES FOR THIS TIME STEP           L**3/T
   ------------------                      ------------------------

                                     IN                                         IN
                                     --                                         --
        PRECIPITATION =        1.4365D+07          PRECIPITATION =                  
           STREAMFLOW =                               STREAMFLOW =                  
     GW BOUNDARY FLOW =            119.14       GW BOUNDARY FLOW =              1.35


                                    OUT                                        OUT
                                    ---                                        ---
   EVAPOTRANSPIRATION =        4874254.18     EVAPOTRANSPIRATION =          20369.32
           STREAMFLOW =        5447325.88             STREAMFLOW =          55178.33
     GW BOUNDARY FLOW =           8230.52       GW BOUNDARY FLOW =             34.64

   INFLOWS - OUTFLOWS =        4035686.87     INFLOWS - OUTFLOWS =         -75580.95
             --------                                   --------

 TOTAL STORAGE CHANGE =        4038515.35         STORAGE CHANGE =         -75581.28
       --------------                             --------------
         LAND SURFACE =         218834.82           LAND SURFACE =         -22220.84
            SOIL ZONE =        6030430.95              SOIL ZONE =         -59342.15
     UNSATURATED ZONE =       -2785714.70       UNSATURATED ZONE =           5444.73
       SATURATED ZONE =         574964.28         SATURATED ZONE =            536.98

 OVERALL BUDGET ERROR =          -2828.48           BUDGET ERROR =              0.33


  PERCENT DISCREPANCY =             -0.02    PERCENT DISCREPANCY =              0.00



1
 SUMMARY VOLUMETRIC BUDGET FOR GSFLOW 
 DATE: 05 26 1991              CUMULATIVE TIME STEP:      26
 MODFLOW STRESS PERIOD      9     CURRENT TIME STEP:     238     ITERATIONS:       6

 -----------------------------------------------------------------------------------

   CUMULATIVE VOLUMES               L**3   RATES FOR THIS TIME STEP           L**3/T
   ------------------                      ------------------------

                                     IN                                         IN
                                     --                                         --
        PRECIPITATION =        1.4426D+07          PRECIPITATION =                  
           STREAMFLOW =                               STREAMFLOW =                  
     GW BOUNDARY FLOW =            128.76       GW BOUNDARY FLOW =              1.39


                                    OUT                                        OUT
                                    ---                                        ---
   EVAPOTRANSPIRATION =        5558730.41     EVAPOTRANSPIRATION =          76940.71
           STREAMFLOW =        5750914.55             STREAMFLOW =          30997.70
     GW BOUNDARY FLOW =           8471.16       GW BOUNDARY FLOW =             34.12

   INFLOWS - OUTFLOWS =        3108510.25     INFLOWS - OUTFLOWS =        -107971.15
             --------                                   --------

 TOTAL STORAGE CHANGE =        3111337.17         STORAGE CHANGE =        -107970.41
       --------------                             --------------
         LAND SURFACE =          51939.66           LAND SURFACE =          -7710.54
            SOIL ZONE =        5248883.83              SOIL ZONE =         -99885.48
     UNSATURATED ZONE =       -2765509.35       UNSATURATED ZONE =           -137.99
       SATURATED ZONE =         576023.03         SATURATED ZONE =           -236.40

 OVERALL BUDGET ERROR =          -2826.92           BUDGET ERROR =             -0.74


  PERCENT DISCREPANCY =             -0.02    PERCENT DISCREPANCY =             -0.00



1
 SUMMARY VOLUMETRIC BUDGET FOR GSFLOW 
 DATE: 06 02 1991              CUMULATIVE TIME STEP:       2
 MODFLOW STRESS PERIOD     10     CURRENT TIME STEP:     245     ITERATIONS:       6

 -----------------------------------------------------------------------------------

   CUMULATIVE VOLUMES               L**3   RATES FOR THIS TIME STEP           L**3/T
   ------------------                      ------------------------

                                     IN                                         IN
                                     --                                         --
        PRECIPITATION =        1.4671D+07          PRECIPITATION =                  
           STREAMFLOW =                               STREAMFLOW =                  
     GW BOUNDARY FLOW =            138.66       GW BOUNDARY FLOW =              1.43


                                    OUT                                        OUT
                                    ---                                        ---
   EVAPOTRANSPIRATION =        6147057.10     EVAPOTRANSPIRATION =         127367.25
           STREAMFLOW =        5960605.62             STREAMFLOW =          25704.67
     GW BOUNDARY FLOW =           8709.24       GW BOUNDARY FLOW =             33.87

   INFLOWS - OUTFLOWS =        2554741.50     INFLOWS - OUTFLOWS =        -153104.36
             --------                                   --------

 TOTAL STORAGE CHANGE =        2557587.90         STORAGE CHANGE =        -153100.81
       --------------                             --------------
         LAND SURFACE =          18584.49           LAND SURFACE =          -3939.55
            SOIL ZONE =        4747413.19              SOIL ZONE =        -145062.99
     UNSATURATED ZONE =       -2779967.61       UNSATURATED ZONE =          -3148.60
       SATURATED ZONE =         571557.83         SATURATED ZONE =           -949.67

 OVERALL BUDGET ERROR =          -2846.40           BUDGET ERROR =             -3.54


  PERCENT DISCREPANCY =             -0.02    PERCENT DISCREPANCY =             -0.00



1
 SUMMARY VOLUMETRIC BUDGET FOR GSFLOW 
 DATE: 06 09 1991              CUMULATIVE TIME STEP:       9
 MODFLOW STRESS PERIOD     10     CURRENT TIME STEP:     252     ITERATIONS:       7

 -----------------------------------------------------------------------------------

   CUMULATIVE VOLUMES               L**3   RATES FOR THIS TIME STEP           L**3/T
   ------------------                      ------------------------

                                     IN                                         IN
                                     --                                         --
        PRECIPITATION =        1.4671D+07          PRECIPITATION =                  
           STREAMFLOW =                               STREAMFLOW =                  
     GW BOUNDARY FLOW =            148.85       GW BOUNDARY FLOW =              1.47


                                    OUT                                        OUT
                                    ---                                        ---
   EVAPOTRANSPIRATION =        6934277.07     EVAPOTRANSPIRATION =         172205.04
           STREAMFLOW =        6111654.98             STREAMFLOW =          18732.53
     GW BOUNDARY FLOW =           8945.20       GW BOUNDARY FLOW =             33.59

   INFLOWS - OUTFLOWS =        1616246.42     INFLOWS - OUTFLOWS =        -190969.68
             --------                                   --------

 TOTAL STORAGE CHANGE =        1619132.80         STORAGE CHANGE =        -190963.46
       --------------                             --------------
         LAND SURFACE =           3507.01           LAND SURFACE =          -2050.96
            SOIL ZONE =        3871832.57              SOIL ZONE =        -180294.76
     UNSATURATED ZONE =       -2816864.19       UNSATURATED ZONE =          -6478.93
       SATURATED ZONE =         560657.41         SATURATED ZONE =          -2138.82

 OVERALL BUDGET ERROR =          -2886.39           BUDGET ERROR =             -6.22


  PERCENT DISCREPANCY =             -0.02    PERCENT DISCREPANCY =             -0.00



1
 SUMMARY VOLUMETRIC BUDGET FOR GSFLOW 
 DATE: 06 16 1991              CUMULATIVE TIME STEP:      16
 MODFLOW STRESS PERIOD     10     CURRENT TIME STEP:     259     ITERATIONS:       6

 -----------------------------------------------------------------------------------

   CUMULATIVE VOLUMES               L**3   RATES FOR THIS TIME STEP           L**3/T
   ------------------                      ------------------------

                                     IN                                         IN
                                     --                                         --
        PRECIPITATION =        1.4671D+07          PRECIPITATION =                  
           STREAMFLOW =                               STREAMFLOW =                  
     GW BOUNDARY FLOW =            159.34       GW BOUNDARY FLOW =              1.51


                                    OUT                                        OUT
                                    ---                                        ---
   EVAPOTRANSPIRATION =        7949251.76     EVAPOTRANSPIRATION =         116805.56
           STREAMFLOW =        6229451.00             STREAMFLOW =          16259.41
     GW BOUNDARY FLOW =           9179.41       GW BOUNDARY FLOW =             33.38

   INFLOWS - OUTFLOWS =         483251.96     INFLOWS - OUTFLOWS =        -133096.83
             --------                                   --------

 TOTAL STORAGE CHANGE =         486202.31         STORAGE CHANGE =        -133085.94
       --------------                             --------------
         LAND SURFACE =             96.44           LAND SURFACE =            -47.78
            SOIL ZONE =        2848348.26              SOIL ZONE =        -113177.24
     UNSATURATED ZONE =       -2902908.26       UNSATURATED ZONE =         -16199.56
       SATURATED ZONE =         540665.87         SATURATED ZONE =          -3661.35

 OVERALL BUDGET ERROR =          -2950.35           BUDGET ERROR =            -10.89


  PERCENT DISCREPANCY =             -0.02    PERCENT DISCREPANCY =             -0.01



1
 SUMMARY VOLUMETRIC BUDGET FOR GSFLOW 
 DATE: 06 23 1991              CUMULATIVE TIME STEP:      23
 MODFLOW STRESS PERIOD     10     CURRENT TIME STEP:     266     ITERATIONS:       5

 -----------------------------------------------------------------------------------

   CUMULATIVE VOLUMES               L**3   RATES FOR THIS TIME STEP           L**3/T
   ------------------                      ------------------------

                                     IN                                         IN
                                     --                                         --
        PRECIPITATION =        1.4671D+07          PRECIPITATION =                  
           STREAMFLOW =                               STREAMFLOW =                  
     GW BOUNDARY FLOW =            169.91       GW BOUNDARY FLOW =              1.48


                                    OUT                                        OUT
                                    ---                                        ---
   EVAPOTRANSPIRATION =        8491587.54     EVAPOTRANSPIRATION =          38893.53
           STREAMFLOW =        6339678.28             STREAMFLOW =          15461.13
     GW BOUNDARY FLOW =           9412.42       GW BOUNDARY FLOW =             33.22

   INFLOWS - OUTFLOWS =        -169533.54     INFLOWS - OUTFLOWS =         -54386.40
             --------                                   --------

 TOTAL STORAGE CHANGE =        -166492.71         STORAGE CHANGE =         -54365.26
       --------------                             --------------
         LAND SURFACE =             13.79           LAND SURFACE =             -3.53
            SOIL ZONE =        2341710.76              SOIL ZONE =         -35979.72
     UNSATURATED ZONE =       -3015683.74       UNSATURATED ZONE =         -13166.29
       SATURATED ZONE =         507466.48         SATURATED ZONE =          -5215.73

 OVERALL BUDGET ERROR =          -3040.83           BUDGET ERROR =            -21.13


  PERCENT DISCREPANCY =             -0.02    PERCENT DISCREPANCY =             -0.04



1
 SUMMARY VOLUMETRIC BUDGET FOR GSFLOW 
 DATE: 06 30 1991              CUMULATIVE TIME STEP:      30
 MODFLOW STRESS PERIOD     10     CURRENT TIME STEP:     273     ITERATIONS:       5

 -----------------------------------------------------------------------------------

   CUMULATIVE VOLUMES               L**3   RATES FOR THIS TIME STEP           L**3/T
   ------------------                      ------------------------

                                     IN                                         IN
[...]
     GW BOUNDARY FLOW =          51254.83       GW BOUNDARY FLOW =             25.10

   INFLOWS - OUTFLOWS =       -1.1020D+07     INFLOWS - OUTFLOWS =         -87884.16
             --------                                   --------

 TOTAL STORAGE CHANGE =       -1.1012D+07         STORAGE CHANGE =         -87893.31
       --------------                             --------------
         LAND SURFACE =         174964.04           LAND SURFACE =         -10872.66
            SOIL ZONE =        1880658.18              SOIL ZONE =         -59472.85
     UNSATURATED ZONE =          47100.95       UNSATURATED ZONE =         -12408.23
       SATURATED ZONE =       -1.3115D+07         SATURATED ZONE =          -5139.56

 OVERALL BUDGET ERROR =          -8201.41           BUDGET ERROR =              9.15


  PERCENT DISCREPANCY =             -0.01    PERCENT DISCREPANCY =              0.01



1
 SUMMARY VOLUMETRIC BUDGET FOR GSFLOW 
 DATE: 09 03 1995              CUMULATIVE TIME STEP:       3
 MODFLOW STRESS PERIOD     61     CURRENT TIME STEP:    1799     ITERATIONS:       7

 -----------------------------------------------------------------------------------

   CUMULATIVE VOLUMES               L**3   RATES FOR THIS TIME STEP           L**3/T
   ------------------                      ------------------------

                                     IN                                         IN
                                     --                                         --
        PRECIPITATION =        1.3351D+08          PRECIPITATION =                  
           STREAMFLOW =                               STREAMFLOW =                  
     GW BOUNDARY FLOW =           5415.12       GW BOUNDARY FLOW =              3.31


                                    OUT                                        OUT
                                    ---                                        ---
   EVAPOTRANSPIRATION =        7.4189D+07     EVAPOTRANSPIRATION =          66642.16
           STREAMFLOW =        7.0878D+07             STREAMFLOW =          11378.52
     GW BOUNDARY FLOW =          51430.27       GW BOUNDARY FLOW =             25.04

   INFLOWS - OUTFLOWS =       -1.1604D+07     INFLOWS - OUTFLOWS =         -78042.41
             --------                                   --------

 TOTAL STORAGE CHANGE =       -1.1596D+07         STORAGE CHANGE =         -78049.34
       --------------                             --------------
         LAND SURFACE =         111496.31           LAND SURFACE =          -7601.38
            SOIL ZONE =        1484645.77              SOIL ZONE =         -52624.87
     UNSATURATED ZONE =         -34647.69       UNSATURATED ZONE =         -11426.07
       SATURATED ZONE =       -1.3158D+07         SATURATED ZONE =          -6397.01

 OVERALL BUDGET ERROR =          -8145.53           BUDGET ERROR =              6.93


  PERCENT DISCREPANCY =             -0.01    PERCENT DISCREPANCY =              0.01



1
 SUMMARY VOLUMETRIC BUDGET FOR GSFLOW 
 DATE: 09 10 1995              CUMULATIVE TIME STEP:      10
 MODFLOW STRESS PERIOD     61     CURRENT TIME STEP:    1806     ITERATIONS:       6

 -----------------------------------------------------------------------------------

   CUMULATIVE VOLUMES               L**3   RATES FOR THIS TIME STEP           L**3/T
   ------------------                      ------------------------

                                     IN                                         IN
                                     --                                         --
        PRECIPITATION =        1.3351D+08          PRECIPITATION =                  
           STREAMFLOW =                               STREAMFLOW =                  
     GW BOUNDARY FLOW =           5438.72       GW BOUNDARY FLOW =              3.42


                                    OUT                                        OUT
                                    ---                                        ---
   EVAPOTRANSPIRATION =        7.4564D+07     EVAPOTRANSPIRATION =          50283.88
           STREAMFLOW =        7.0955D+07             STREAMFLOW =          10894.52
     GW BOUNDARY FLOW =          51605.35       GW BOUNDARY FLOW =             24.99

   INFLOWS - OUTFLOWS =       -1.2057D+07     INFLOWS - OUTFLOWS =         -61199.98
             --------                                   --------

 TOTAL STORAGE CHANGE =       -1.2049D+07         STORAGE CHANGE =         -61210.81
       --------------                             --------------
         LAND SURFACE =          73766.30           LAND SURFACE =          -4565.46
            SOIL ZONE =        1190167.97              SOIL ZONE =         -39196.27
     UNSATURATED ZONE =        -110825.15       UNSATURATED ZONE =         -10680.10
       SATURATED ZONE =       -1.3202D+07         SATURATED ZONE =          -6768.99

 OVERALL BUDGET ERROR =          -8078.99           BUDGET ERROR =             10.83


  PERCENT DISCREPANCY =             -0.01    PERCENT DISCREPANCY =              0.02



1
 SUMMARY VOLUMETRIC BUDGET FOR GSFLOW 
 DATE: 09 17 1995              CUMULATIVE TIME STEP:      17
 MODFLOW STRESS PERIOD     61     CURRENT TIME STEP:    1813     ITERATIONS:       7

 -----------------------------------------------------------------------------------

   CUMULATIVE VOLUMES               L**3   RATES FOR THIS TIME STEP           L**3/T
   ------------------                      ------------------------

                                     IN                                         IN
                                     --                                         --
        PRECIPITATION =        1.3351D+08          PRECIPITATION =                  
           STREAMFLOW =                               STREAMFLOW =                  
     GW BOUNDARY FLOW =           5463.04       GW BOUNDARY FLOW =              3.52


                                    OUT                                        OUT
                                    ---                                        ---
   EVAPOTRANSPIRATION =        7.4973D+07     EVAPOTRANSPIRATION =          46646.95
           STREAMFLOW =        7.1028D+07             STREAMFLOW =          10306.40
     GW BOUNDARY FLOW =          51780.04       GW BOUNDARY FLOW =             24.94

   INFLOWS - OUTFLOWS =       -1.2539D+07     INFLOWS - OUTFLOWS =         -56974.76
             --------                                   --------

 TOTAL STORAGE CHANGE =       -1.2531D+07         STORAGE CHANGE =         -56978.87
       --------------                             --------------
         LAND SURFACE =          42893.81           LAND SURFACE =          -2921.51
            SOIL ZONE =         879874.61              SOIL ZONE =         -34302.84
     UNSATURATED ZONE =        -189886.79       UNSATURATED ZONE =         -11471.38
       SATURATED ZONE =       -1.3264D+07         SATURATED ZONE =          -8283.13

 OVERALL BUDGET ERROR =          -8024.28           BUDGET ERROR =              4.10


  PERCENT DISCREPANCY =             -0.01    PERCENT DISCREPANCY =              0.01



1
 SUMMARY VOLUMETRIC BUDGET FOR GSFLOW 
 DATE: 09 24 1995              CUMULATIVE TIME STEP:      24
 MODFLOW STRESS PERIOD     61     CURRENT TIME STEP:    1820     ITERATIONS:       6

 -----------------------------------------------------------------------------------

   CUMULATIVE VOLUMES               L**3   RATES FOR THIS TIME STEP           L**3/T
   ------------------                      ------------------------

                                     IN                                         IN
                                     --                                         --
        PRECIPITATION =        1.3351D+08          PRECIPITATION =                  
           STREAMFLOW =                               STREAMFLOW =                  
     GW BOUNDARY FLOW =           5488.05       GW BOUNDARY FLOW =              3.61


                                    OUT                                        OUT
                                    ---                                        ---
   EVAPOTRANSPIRATION =        7.5262D+07     EVAPOTRANSPIRATION =          30103.26
           STREAMFLOW =        7.1099D+07             STREAMFLOW =          10106.49
     GW BOUNDARY FLOW =          51954.45       GW BOUNDARY FLOW =             24.90

   INFLOWS - OUTFLOWS =       -1.2899D+07     INFLOWS - OUTFLOWS =         -40231.04
             --------                                   --------

 TOTAL STORAGE CHANGE =       -1.2891D+07         STORAGE CHANGE =         -40237.76
       --------------                             --------------
         LAND SURFACE =          27188.15           LAND SURFACE =          -1533.29
            SOIL ZONE =         673627.69              SOIL ZONE =         -20840.87
     UNSATURATED ZONE =        -267090.96       UNSATURATED ZONE =         -10296.85
       SATURATED ZONE =       -1.3325D+07         SATURATED ZONE =          -7566.76

 OVERALL BUDGET ERROR =          -7993.25           BUDGET ERROR =              6.72


  PERCENT DISCREPANCY =             -0.01    PERCENT DISCREPANCY =              0.02



1
 SUMMARY VOLUMETRIC BUDGET FOR GSFLOW 
 DATE: 10 01 1995              CUMULATIVE TIME STEP:       1
 MODFLOW STRESS PERIOD     62     CURRENT TIME STEP:    1827     ITERATIONS:       6

 -----------------------------------------------------------------------------------

   CUMULATIVE VOLUMES               L**3   RATES FOR THIS TIME STEP           L**3/T
   ------------------                      ------------------------

                                     IN                                         IN
                                     --                                         --
        PRECIPITATION =        1.3351D+08          PRECIPITATION =                  
           STREAMFLOW =                               STREAMFLOW =                  
     GW BOUNDARY FLOW =           5513.71       GW BOUNDARY FLOW =              3.70


                                    OUT                                        OUT
                                    ---                                        ---
   EVAPOTRANSPIRATION =        7.5389D+07     EVAPOTRANSPIRATION =          18486.13
           STREAMFLOW =        7.1170D+07             STREAMFLOW =          10092.21
     GW BOUNDARY FLOW =          52128.70       GW BOUNDARY FLOW =             24.88

   INFLOWS - OUTFLOWS =       -1.3098D+07     INFLOWS - OUTFLOWS =         -28599.52
             --------                                   --------

 TOTAL STORAGE CHANGE =       -1.3090D+07         STORAGE CHANGE =         -28604.91
       --------------                             --------------
         LAND SURFACE =          21549.73           LAND SURFACE =           -680.64
            SOIL ZONE =         586921.07              SOIL ZONE =         -12597.64
     UNSATURATED ZONE =        -330736.19       UNSATURATED ZONE =          -8914.95
       SATURATED ZONE =       -1.3367D+07         SATURATED ZONE =          -6411.69

 OVERALL BUDGET ERROR =          -7957.81           BUDGET ERROR =              5.39


  PERCENT DISCREPANCY =             -0.01    PERCENT DISCREPANCY =              0.02



1
 SUMMARY VOLUMETRIC BUDGET FOR GSFLOW 
 DATE: 10 08 1995              CUMULATIVE TIME STEP:       8
 MODFLOW STRESS PERIOD     62     CURRENT TIME STEP:    1834     ITERATIONS:       5

 -----------------------------------------------------------------------------------

   CUMULATIVE VOLUMES               L**3   RATES FOR THIS TIME STEP           L**3/T
   ------------------                      ------------------------

                                     IN                                         IN
                                     --                                         --
        PRECIPITATION =        1.3351D+08          PRECIPITATION =                  
           STREAMFLOW =                               STREAMFLOW =                  
     GW BOUNDARY FLOW =           5539.97       GW BOUNDARY FLOW =              3.79


                                    OUT                                        OUT
                                    ---                                        ---
   EVAPOTRANSPIRATION =        7.5525D+07     EVAPOTRANSPIRATION =          17056.20
           STREAMFLOW =        7.1240D+07             STREAMFLOW =           9951.75
     GW BOUNDARY FLOW =          52302.80       GW BOUNDARY FLOW =             24.86

   INFLOWS - OUTFLOWS =       -1.3303D+07     INFLOWS - OUTFLOWS =         -27029.03
             --------                                   --------

 TOTAL STORAGE CHANGE =       -1.3295D+07         STORAGE CHANGE =         -27035.77
       --------------                             --------------
         LAND SURFACE =          17598.17           LAND SURFACE =           -617.60
            SOIL ZONE =         494567.39              SOIL ZONE =         -11322.75
     UNSATURATED ZONE =        -390395.51       UNSATURATED ZONE =          -8154.72
       SATURATED ZONE =       -1.3417D+07         SATURATED ZONE =          -6940.69

 OVERALL BUDGET ERROR =          -7919.77           BUDGET ERROR =              6.74


  PERCENT DISCREPANCY =             -0.01    PERCENT DISCREPANCY =              0.02



1
 SUMMARY VOLUMETRIC BUDGET FOR GSFLOW 
 DATE: 10 15 1995              CUMULATIVE TIME STEP:      15
 MODFLOW STRESS PERIOD     62     CURRENT TIME STEP:    1841     ITERATIONS:       5

 -----------------------------------------------------------------------------------

   CUMULATIVE VOLUMES               L**3   RATES FOR THIS TIME STEP           L**3/T
   ------------------                      ------------------------

                                     IN                                         IN
                                     --                                         --
        PRECIPITATION =        1.3351D+08          PRECIPITATION =                  
           STREAMFLOW =                               STREAMFLOW =                  
     GW BOUNDARY FLOW =           5566.77       GW BOUNDARY FLOW =              3.86


                                    OUT                                        OUT
                                    ---                                        ---
   EVAPOTRANSPIRATION =        7.5652D+07     EVAPOTRANSPIRATION =          19797.43
           STREAMFLOW =        7.1308D+07             STREAMFLOW =           9603.55
     GW BOUNDARY FLOW =          52475.96       GW BOUNDARY FLOW =             24.71

   INFLOWS - OUTFLOWS =       -1.3499D+07     INFLOWS - OUTFLOWS =         -29421.83
             --------                                   --------

 TOTAL STORAGE CHANGE =       -1.3491D+07         STORAGE CHANGE =         -29425.20
       --------------                             --------------
         LAND SURFACE =          13563.29           LAND SURFACE =           -673.08
            SOIL ZONE =         410201.20              SOIL ZONE =         -12918.46
     UNSATURATED ZONE =        -444664.92       UNSATURATED ZONE =          -7525.70
       SATURATED ZONE =       -1.3470D+07         SATURATED ZONE =          -8307.96

 OVERALL BUDGET ERROR =          -7899.28           BUDGET ERROR =              3.36


  PERCENT DISCREPANCY =             -0.01    PERCENT DISCREPANCY =              0.01



1
 SUMMARY VOLUMETRIC BUDGET FOR GSFLOW 
 DATE: 10 22 1995              CUMULATIVE TIME STEP:      22
 MODFLOW STRESS PERIOD     62     CURRENT TIME STEP:    1848     ITERATIONS:      10

 -----------------------------------------------------------------------------------

   CUMULATIVE VOLUMES               L**3   RATES FOR THIS TIME STEP           L**3/T
   ------------------                      ------------------------

                                     IN                                         IN
                                     --                                         --
        PRECIPITATION =        1.3351D+08          PRECIPITATION =                  
           STREAMFLOW =                               STREAMFLOW =                  
     GW BOUNDARY FLOW =           5594.11       GW BOUNDARY FLOW =              3.94


                                    OUT                                        OUT
                                    ---                                        ---
   EVAPOTRANSPIRATION =        7.5765D+07     EVAPOTRANSPIRATION =           5155.63
           STREAMFLOW =        7.1376D+07             STREAMFLOW =           9945.42
     GW BOUNDARY FLOW =          52648.68       GW BOUNDARY FLOW =             24.71

   INFLOWS - OUTFLOWS =       -1.3679D+07     INFLOWS - OUTFLOWS =         -15121.81
             --------                                   --------

 TOTAL STORAGE CHANGE =       -1.3671D+07         STORAGE CHANGE =         -15122.11
       --------------                             --------------
         LAND SURFACE =          10116.83           LAND SURFACE =             -7.51
            SOIL ZONE =         338148.05              SOIL ZONE =          -3053.13
     UNSATURATED ZONE =        -494441.35       UNSATURATED ZONE =          -6559.60
       SATURATED ZONE =       -1.3525D+07         SATURATED ZONE =          -5501.87

 OVERALL BUDGET ERROR =          -7890.05           BUDGET ERROR =              0.30


  PERCENT DISCREPANCY =             -0.01    PERCENT DISCREPANCY =              0.00



1
 SUMMARY VOLUMETRIC BUDGET FOR GSFLOW 
 DATE: 10 29 1995              CUMULATIVE TIME STEP:      29
 MODFLOW STRESS PERIOD     62     CURRENT TIME STEP:    1855     ITERATIONS:       5

 -----------------------------------------------------------------------------------

   CUMULATIVE VOLUMES               L**3   RATES FOR THIS TIME STEP           L**3/T
   ------------------                      ------------------------

                                     IN                                         IN
                                     --                                         --
        PRECIPITATION =        1.3351D+08          PRECIPITATION =                  
           STREAMFLOW =                               STREAMFLOW =                  
     GW BOUNDARY FLOW =           5622.05       GW BOUNDARY FLOW =              4.03


                                    OUT                                        OUT
                                    ---                                        ---
   EVAPOTRANSPIRATION =        7.5837D+07     EVAPOTRANSPIRATION =          12318.34
           STREAMFLOW =        7.1443D+07             STREAMFLOW =           9517.37
     GW BOUNDARY FLOW =          52821.54       GW BOUNDARY FLOW =             24.65

   INFLOWS - OUTFLOWS =       -1.3819D+07     INFLOWS - OUTFLOWS =         -21856.33
             --------                                   --------

 TOTAL STORAGE CHANGE =       -1.3811D+07         STORAGE CHANGE =         -21858.45
       --------------                             --------------
         LAND SURFACE =           8965.16           LAND SURFACE =           -342.48
            SOIL ZONE =         295071.66              SOIL ZONE =          -7272.07
     UNSATURATED ZONE =        -541353.87       UNSATURATED ZONE =          -6656.54
       SATURATED ZONE =       -1.3574D+07         SATURATED ZONE =          -7587.36

 OVERALL BUDGET ERROR =          -7881.20           BUDGET ERROR =              2.12


  PERCENT DISCREPANCY =             -0.01    PERCENT DISCREPANCY =              0.01



 Number of time steps:   1857;  Number of non-convergence:   0
 MF iterations:         11523;  SZ iterations:           11512
 Average MF iterations:  6.21;  Average SZ iterations:    6.20
 Maximum MF iterations:    61;  Maximum SZ iterations:      50

mxsziter reached: 1

