1
 SUMMARY VOLUMETRIC BUDGET FOR GSFLOW 
 DATE: 10 07 1990              CUMULATIVE TIME STEP:       7
 MODFLOW STRESS PERIOD      2     CURRENT TIME STEP:       7     ITERATIONS:       7

 -----------------------------------------------------------------------------------

   CUMULATIVE VOLUMES               L**3   RATES FOR THIS TIME STEP           L**3/T
   ------------------                      ------------------------

                                     IN                                         IN
                                     --                                         --
        PRECIPITATION =                            PRECIPITATION =                  
           STREAMFLOW =                               STREAMFLOW =                  
     GW BOUNDARY FLOW =                         GW BOUNDARY FLOW =                  


                                    OUT                                        OUT
                                    ---                                        ---
   EVAPOTRANSPIRATION =         384997.90     EVAPOTRANSPIRATION =          11800.14
           STREAMFLOW =          46311.09             STREAMFLOW =           8184.28
     GW BOUNDARY FLOW =            252.80       GW BOUNDARY FLOW =             36.30

   INFLOWS - OUTFLOWS =        -431561.78     INFLOWS - OUTFLOWS =         -20020.73
             --------                                   --------

 TOTAL STORAGE CHANGE =        -430092.43         STORAGE CHANGE =         -19994.04
       --------------                             --------------
         LAND SURFACE =                             LAND SURFACE =                  
            SOIL ZONE =         -33647.94              SOIL ZONE =           -949.06
     UNSATURATED ZONE =        -502271.26       UNSATURATED ZONE =         -33315.93
       SATURATED ZONE =         105826.77         SATURATED ZONE =          14270.95

 OVERALL BUDGET ERROR =          -1469.35           BUDGET ERROR =            -26.68


  PERCENT DISCREPANCY =             -0.34    PERCENT DISCREPANCY =             -0.13



1
 SUMMARY VOLUMETRIC BUDGET FOR GSFLOW 
 DATE: 10 14 1990              CUMULATIVE TIME STEP:      14
 MODFLOW STRESS PERIOD      2     CURRENT TIME STEP:      14     ITERATIONS:       6

 -----------------------------------------------------------------------------------

   CUMULATIVE VOLUMES               L**3   RATES FOR THIS TIME STEP           L**3/T
   ------------------                      ------------------------

                                     IN                                         IN
                                     --                                         --
        PRECIPITATION =                            PRECIPITATION =                  
           STREAMFLOW =                               STREAMFLOW =                  
     GW BOUNDARY FLOW =                         GW BOUNDARY FLOW =                  


                                    OUT                                        OUT
                                    ---                                        ---
   EVAPOTRANSPIRATION =         665193.76     EVAPOTRANSPIRATION =          42313.10
           STREAMFLOW =         101471.34             STREAMFLOW =           7477.71
     GW BOUNDARY FLOW =            506.65       GW BOUNDARY FLOW =             36.24

   INFLOWS - OUTFLOWS =        -767171.75     INFLOWS - OUTFLOWS =         -49827.05
             --------                                   --------

 TOTAL STORAGE CHANGE =        -765417.42         STORAGE CHANGE =         -49806.36
       --------------                             --------------
         LAND SURFACE =                             LAND SURFACE =                  
            SOIL ZONE =         -58651.68              SOIL ZONE =          -4416.62
     UNSATURATED ZONE =        -877077.56       UNSATURATED ZONE =         -52127.47
       SATURATED ZONE =         170311.81         SATURATED ZONE =           6737.73

 OVERALL BUDGET ERROR =          -1754.33           BUDGET ERROR =            -20.69


  PERCENT DISCREPANCY =             -0.23    PERCENT DISCREPANCY =             -0.04



1
 SUMMARY VOLUMETRIC BUDGET FOR GSFLOW 
 DATE: 10 21 1990              CUMULATIVE TIME STEP:      21
 MODFLOW STRESS PERIOD      2     CURRENT TIME STEP:      21     ITERATIONS:       6

 -----------------------------------------------------------------------------------

   CUMULATIVE VOLUMES               L**3   RATES FOR THIS TIME STEP           L**3/T
   ------------------                      ------------------------

                                     IN                                         IN
                                     --                                         --
        PRECIPITATION =         188432.87          PRECIPITATION =                  
           STREAMFLOW =                               STREAMFLOW =                  
     GW BOUNDARY FLOW =                         GW BOUNDARY FLOW =                  


                                    OUT                                        OUT
                                    ---                                        ---
   EVAPOTRANSPIRATION =         815180.84     EVAPOTRANSPIRATION =          41469.37
           STREAMFLOW =         164526.62             STREAMFLOW =          10158.23
     GW BOUNDARY FLOW =            760.84       GW BOUNDARY FLOW =             36.37

   INFLOWS - OUTFLOWS =        -792035.43     INFLOWS - OUTFLOWS =         -51663.98
             --------                                   --------

 TOTAL STORAGE CHANGE =        -790229.13         STORAGE CHANGE =         -51668.62
       --------------                             --------------
         LAND SURFACE =          18885.57           LAND SURFACE =         -43558.49
            SOIL ZONE =          48560.04              SOIL ZONE =           2382.49
     UNSATURATED ZONE =       -1091041.31       UNSATURATED ZONE =         -21427.06
       SATURATED ZONE =         233366.56         SATURATED ZONE =          10934.44

 OVERALL BUDGET ERROR =          -1806.30           BUDGET ERROR =              4.65


  PERCENT DISCREPANCY =             -0.18    PERCENT DISCREPANCY =              0.01



1
 SUMMARY VOLUMETRIC BUDGET FOR GSFLOW 
 DATE: 10 28 1990              CUMULATIVE TIME STEP:      28
 MODFLOW STRESS PERIOD      2     CURRENT TIME STEP:      28     ITERATIONS:       6

 -----------------------------------------------------------------------------------

   CUMULATIVE VOLUMES               L**3   RATES FOR THIS TIME STEP           L**3/T
   ------------------                      ------------------------

                                     IN                                         IN
                                     --                                         --
        PRECIPITATION =         188432.87          PRECIPITATION =                  
           STREAMFLOW =                               STREAMFLOW =                  
     GW BOUNDARY FLOW =                         GW BOUNDARY FLOW =                  


                                    OUT                                        OUT
                                    ---                                        ---
   EVAPOTRANSPIRATION =         942656.39     EVAPOTRANSPIRATION =          11818.13
           STREAMFLOW =         226136.43             STREAMFLOW =           8957.60
     GW BOUNDARY FLOW =           1014.03       GW BOUNDARY FLOW =             36.13

   INFLOWS - OUTFLOWS =        -981373.98     INFLOWS - OUTFLOWS =         -20811.86
             --------                                   --------

 TOTAL STORAGE CHANGE =        -979552.81         STORAGE CHANGE =         -20813.82
       --------------                             --------------
         LAND SURFACE =                             LAND SURFACE =                  
            SOIL ZONE =          20663.71              SOIL ZONE =          -3451.21
     UNSATURATED ZONE =       -1274783.10       UNSATURATED ZONE =         -23264.16
       SATURATED ZONE =         274566.58         SATURATED ZONE =           5901.54

 OVERALL BUDGET ERROR =          -1821.17           BUDGET ERROR =              1.97


  PERCENT DISCREPANCY =             -0.16    PERCENT DISCREPANCY =              0.01



1
 SUMMARY VOLUMETRIC BUDGET FOR GSFLOW 
 DATE: 11 04 1990              CUMULATIVE TIME STEP:       4
 MODFLOW STRESS PERIOD      3     CURRENT TIME STEP:      35     ITERATIONS:       6

 -----------------------------------------------------------------------------------

   CUMULATIVE VOLUMES               L**3   RATES FOR THIS TIME STEP           L**3/T
   ------------------                      ------------------------

                                     IN                                         IN
                                     --                                         --
        PRECIPITATION =         703113.06          PRECIPITATION =                  
           STREAMFLOW =                               STREAMFLOW =                  
     GW BOUNDARY FLOW =                         GW BOUNDARY FLOW =                  


                                    OUT                                        OUT
                                    ---                                        ---
   EVAPOTRANSPIRATION =        1002965.65     EVAPOTRANSPIRATION =          26049.59
           STREAMFLOW =         296487.21             STREAMFLOW =          10509.32
     GW BOUNDARY FLOW =           1267.07       GW BOUNDARY FLOW =             36.13

   INFLOWS - OUTFLOWS =        -597606.87     INFLOWS - OUTFLOWS =         -36595.04
             --------                                   --------

 TOTAL STORAGE CHANGE =        -595807.18         STORAGE CHANGE =         -36599.72
       --------------                             --------------
         LAND SURFACE =         132159.65           LAND SURFACE =        -160480.33
            SOIL ZONE =         358341.83              SOIL ZONE =         134637.70
     UNSATURATED ZONE =       -1420502.95       UNSATURATED ZONE =         -20099.02
       SATURATED ZONE =         334194.28         SATURATED ZONE =           9341.92

 OVERALL BUDGET ERROR =          -1799.69           BUDGET ERROR =              4.68


  PERCENT DISCREPANCY =             -0.14    PERCENT DISCREPANCY =              0.01



1
 SUMMARY VOLUMETRIC BUDGET FOR GSFLOW 
 DATE: 11 11 1990              CUMULATIVE TIME STEP:      11
 MODFLOW STRESS PERIOD      3     CURRENT TIME STEP:      42     ITERATIONS:       6

 -----------------------------------------------------------------------------------

   CUMULATIVE VOLUMES               L**3   RATES FOR THIS TIME STEP           L**3/T
   ------------------                      ------------------------

                                     IN                                         IN
                                     --                                         --
        PRECIPITATION =         703113.06          PRECIPITATION =                  
           STREAMFLOW =                               STREAMFLOW =                  
     GW BOUNDARY FLOW =                         GW BOUNDARY FLOW =                  


                                    OUT                                        OUT
                                    ---                                        ---
   EVAPOTRANSPIRATION =        1079060.49     EVAPOTRANSPIRATION =          12197.25
           STREAMFLOW =         367271.88             STREAMFLOW =           9661.23
     GW BOUNDARY FLOW =           1519.17       GW BOUNDARY FLOW =             35.93

   INFLOWS - OUTFLOWS =        -744738.47     INFLOWS - OUTFLOWS =         -21894.41
             --------                                   --------

 TOTAL STORAGE CHANGE =        -742958.63         STORAGE CHANGE =         -21897.17
       --------------                             --------------
         LAND SURFACE =            595.09           LAND SURFACE =          -1416.54
            SOIL ZONE =         432403.32              SOIL ZONE =          -5555.03
     UNSATURATED ZONE =       -1560032.39       UNSATURATED ZONE =         -19881.53
       SATURATED ZONE =         384075.36         SATURATED ZONE =           4955.94

 OVERALL BUDGET ERROR =          -1779.84           BUDGET ERROR =              2.76


  PERCENT DISCREPANCY =             -0.12    PERCENT DISCREPANCY =              0.01



1
 SUMMARY VOLUMETRIC BUDGET FOR GSFLOW 
 DATE: 11 18 1990              CUMULATIVE TIME STEP:      18
 MODFLOW STRESS PERIOD      3     CURRENT TIME STEP:      49     ITERATIONS:       6

 -----------------------------------------------------------------------------------

   CUMULATIVE VOLUMES               L**3   RATES FOR THIS TIME STEP           L**3/T
   ------------------                      ------------------------

                                     IN                                         IN
                                     --                                         --
        PRECIPITATION =         747883.35          PRECIPITATION =                  
           STREAMFLOW =                               STREAMFLOW =                  
     GW BOUNDARY FLOW =                         GW BOUNDARY FLOW =                  


                                    OUT                                        OUT
                                    ---                                        ---
   EVAPOTRANSPIRATION =        1150677.33     EVAPOTRANSPIRATION =           4986.52
           STREAMFLOW =         438848.51             STREAMFLOW =          10650.07
     GW BOUNDARY FLOW =           1770.48       GW BOUNDARY FLOW =             35.88

   INFLOWS - OUTFLOWS =        -843412.97     INFLOWS - OUTFLOWS =         -15672.47
             --------                                   --------

 TOTAL STORAGE CHANGE =        -841648.97         STORAGE CHANGE =         -15675.74
       --------------                             --------------
         LAND SURFACE =           7868.08           LAND SURFACE =          -3691.47
            SOIL ZONE =         415637.29              SOIL ZONE =           -597.85
     UNSATURATED ZONE =       -1693483.18       UNSATURATED ZONE =         -18647.22
       SATURATED ZONE =         428328.84         SATURATED ZONE =           7260.80

 OVERALL BUDGET ERROR =          -1764.00           BUDGET ERROR =              3.26


  PERCENT DISCREPANCY =             -0.11    PERCENT DISCREPANCY =              0.02



1
 SUMMARY VOLUMETRIC BUDGET FOR GSFLOW 
 DATE: 11 25 1990              CUMULATIVE TIME STEP:      25
 MODFLOW STRESS PERIOD      3     CURRENT TIME STEP:      56     ITERATIONS:       6

 -----------------------------------------------------------------------------------

   CUMULATIVE VOLUMES               L**3   RATES FOR THIS TIME STEP           L**3/T
   ------------------                      ------------------------

                                     IN                                         IN
                                     --                                         --
        PRECIPITATION =        1009043.38          PRECIPITATION =         186542.88
           STREAMFLOW =                               STREAMFLOW =                  
     GW BOUNDARY FLOW =                         GW BOUNDARY FLOW =                  


                                    OUT                                        OUT
                                    ---                                        ---
   EVAPOTRANSPIRATION =        1210197.53     EVAPOTRANSPIRATION =           3753.88
           STREAMFLOW =         514575.65             STREAMFLOW =          10734.53
     GW BOUNDARY FLOW =           2021.41       GW BOUNDARY FLOW =             35.79

   INFLOWS - OUTFLOWS =        -717751.21     INFLOWS - OUTFLOWS =         172018.67
             --------                                   --------

 TOTAL STORAGE CHANGE =        -716006.10         STORAGE CHANGE =         172016.34
       --------------                             --------------
         LAND SURFACE =          86180.68           LAND SURFACE =          69567.13
            SOIL ZONE =         541496.64              SOIL ZONE =         114158.52
     UNSATURATED ZONE =       -1821423.91       UNSATURATED ZONE =         -17969.43
       SATURATED ZONE =         477740.50         SATURATED ZONE =           6260.12

 OVERALL BUDGET ERROR =          -1745.11           BUDGET ERROR =              2.33


  PERCENT DISCREPANCY =             -0.10    PERCENT DISCREPANCY =              0.00



1
 SUMMARY VOLUMETRIC BUDGET FOR GSFLOW 
 DATE: 12 02 1990              CUMULATIVE TIME STEP:       2
 MODFLOW STRESS PERIOD      4     CURRENT TIME STEP:      63     ITERATIONS:       6

 -----------------------------------------------------------------------------------

   CUMULATIVE VOLUMES               L**3   RATES FOR THIS TIME STEP           L**3/T
   ------------------                      ------------------------

                                     IN                                         IN
                                     --                                         --
        PRECIPITATION =        1449284.55          PRECIPITATION =                  
           STREAMFLOW =                               STREAMFLOW =                  
     GW BOUNDARY FLOW =                         GW BOUNDARY FLOW =                  


                                    OUT                                        OUT
                                    ---                                        ---
   EVAPOTRANSPIRATION =        1216692.66     EVAPOTRANSPIRATION =            234.47
           STREAMFLOW =         591500.99             STREAMFLOW =          11039.58
     GW BOUNDARY FLOW =           2271.88       GW BOUNDARY FLOW =             35.77

   INFLOWS - OUTFLOWS =        -361180.98     INFLOWS - OUTFLOWS =         -11309.82
             --------                                   --------

 TOTAL STORAGE CHANGE =        -359451.20         STORAGE CHANGE =         -11311.74
       --------------                             --------------
         LAND SURFACE =         486845.62           LAND SURFACE =           -339.04
            SOIL ZONE =         575477.00              SOIL ZONE =            234.78
     UNSATURATED ZONE =       -1944603.19       UNSATURATED ZONE =         -17301.06
       SATURATED ZONE =         522829.37         SATURATED ZONE =           6093.58

 OVERALL BUDGET ERROR =          -1729.78           BUDGET ERROR =              1.92


  PERCENT DISCREPANCY =             -0.10    PERCENT DISCREPANCY =              0.02



1
 SUMMARY VOLUMETRIC BUDGET FOR GSFLOW 
 DATE: 12 09 1990              CUMULATIVE TIME STEP:       9
 MODFLOW STRESS PERIOD      4     CURRENT TIME STEP:      70     ITERATIONS:       6

 -----------------------------------------------------------------------------------

   CUMULATIVE VOLUMES               L**3   RATES FOR THIS TIME STEP           L**3/T
   ------------------                      ------------------------

                                     IN                                         IN
                                     --                                         --
        PRECIPITATION =        1449284.55          PRECIPITATION =                  
           STREAMFLOW =                               STREAMFLOW =                  
     GW BOUNDARY FLOW =                         GW BOUNDARY FLOW =                  


                                    OUT                                        OUT
                                    ---                                        ---
   EVAPOTRANSPIRATION =        1291165.57     EVAPOTRANSPIRATION =          13339.79
           STREAMFLOW =         668371.12             STREAMFLOW =          10723.31
     GW BOUNDARY FLOW =           2521.82       GW BOUNDARY FLOW =             35.64

   INFLOWS - OUTFLOWS =        -512773.95     INFLOWS - OUTFLOWS =         -24098.74
             --------                                   --------

 TOTAL STORAGE CHANGE =        -511054.37         STORAGE CHANGE =         -24099.47
       --------------                             --------------
         LAND SURFACE =          67215.41           LAND SURFACE =         -45889.70
            SOIL ZONE =         925240.05              SOIL ZONE =          34424.08
     UNSATURATED ZONE =       -2062735.11       UNSATURATED ZONE =         -16512.16
       SATURATED ZONE =         559225.28         SATURATED ZONE =           3878.31

 OVERALL BUDGET ERROR =          -1719.58           BUDGET ERROR =              0.73


  PERCENT DISCREPANCY =             -0.09    PERCENT DISCREPANCY =              0.00



1
 SUMMARY VOLUMETRIC BUDGET FOR GSFLOW 
 DATE: 12 16 1990              CUMULATIVE TIME STEP:      16
 MODFLOW STRESS PERIOD      4     CURRENT TIME STEP:      77     ITERATIONS:       5

 -----------------------------------------------------------------------------------

   CUMULATIVE VOLUMES               L**3   RATES FOR THIS TIME STEP           L**3/T
   ------------------                      ------------------------

                                     IN                                         IN
                                     --                                         --
        PRECIPITATION =        1804962.84          PRECIPITATION =                  
           STREAMFLOW =                               STREAMFLOW =                  
     GW BOUNDARY FLOW =                         GW BOUNDARY FLOW =                  


                                    OUT                                        OUT
                                    ---                                        ---
   EVAPOTRANSPIRATION =        1319102.94     EVAPOTRANSPIRATION =                  
           STREAMFLOW =         746814.56             STREAMFLOW =          11394.17
     GW BOUNDARY FLOW =           2771.20       GW BOUNDARY FLOW =             35.61

   INFLOWS - OUTFLOWS =        -263725.85     INFLOWS - OUTFLOWS =         -11429.77
             --------                                   --------

 TOTAL STORAGE CHANGE =        -262015.60         STORAGE CHANGE =         -11430.73
       --------------                             --------------
         LAND SURFACE =         252566.26           LAND SURFACE =                  
            SOIL ZONE =        1071844.74              SOIL ZONE =            148.51
     UNSATURATED ZONE =       -2176344.85       UNSATURATED ZONE =         -15967.71
       SATURATED ZONE =         589918.24         SATURATED ZONE =           4388.47

 OVERALL BUDGET ERROR =          -1710.25           BUDGET ERROR =              0.96


  PERCENT DISCREPANCY =             -0.08    PERCENT DISCREPANCY =              0.01



1
 SUMMARY VOLUMETRIC BUDGET FOR GSFLOW 
 DATE: 12 23 1990              CUMULATIVE TIME STEP:      23
 MODFLOW STRESS PERIOD      4     CURRENT TIME STEP:      84     ITERATIONS:       6

 -----------------------------------------------------------------------------------

   CUMULATIVE VOLUMES               L**3   RATES FOR THIS TIME STEP           L**3/T
   ------------------                      ------------------------

                                     IN                                         IN
                                     --                                         --
        PRECIPITATION =        2276236.55          PRECIPITATION =                  
           STREAMFLOW =                               STREAMFLOW =                  
     GW BOUNDARY FLOW =              0.08       GW BOUNDARY FLOW =              0.04


                                    OUT                                        OUT
                                    ---                                        ---
   EVAPOTRANSPIRATION =        1320160.46     EVAPOTRANSPIRATION =                  
           STREAMFLOW =         827000.31             STREAMFLOW =          11494.68
     GW BOUNDARY FLOW =           3020.21       GW BOUNDARY FLOW =             35.57

   INFLOWS - OUTFLOWS =         126055.65     INFLOWS - OUTFLOWS =         -11530.21
             --------                                   --------

 TOTAL STORAGE CHANGE =         127764.94         STORAGE CHANGE =         -11530.05
       --------------                             --------------
         LAND SURFACE =         722784.34           LAND SURFACE =                  
            SOIL ZONE =        1072929.50              SOIL ZONE =            158.69
     UNSATURATED ZONE =       -2285772.05       UNSATURATED ZONE =         -15387.48
       SATURATED ZONE =         617823.15         SATURATED ZONE =           3698.74

 OVERALL BUDGET ERROR =          -1709.29           BUDGET ERROR =             -0.16


  PERCENT DISCREPANCY =             -0.08    PERCENT DISCREPANCY =             -0.00



1
 SUMMARY VOLUMETRIC BUDGET FOR GSFLOW 
 DATE: 12 30 1990              CUMULATIVE TIME STEP:      30
 MODFLOW STRESS PERIOD      4     CURRENT TIME STEP:      91     ITERATIONS:       5

 -----------------------------------------------------------------------------------

   CUMULATIVE VOLUMES               L**3   RATES FOR THIS TIME STEP           L**3/T
   ------------------                      ------------------------

                                     IN                                         IN
                                     --                                         --
        PRECIPITATION =        2276236.55          PRECIPITATION =                  
           STREAMFLOW =                               STREAMFLOW =                  
     GW BOUNDARY FLOW =              0.77       GW BOUNDARY FLOW =              0.14


                                    OUT                                        OUT
                                    ---                                        ---
   EVAPOTRANSPIRATION =        1320727.97     EVAPOTRANSPIRATION =                  
           STREAMFLOW =         907859.53             STREAMFLOW =          11594.33
     GW BOUNDARY FLOW =           3269.30       GW BOUNDARY FLOW =             35.60

   INFLOWS - OUTFLOWS =          44380.51     INFLOWS - OUTFLOWS =         -11629.79
             --------                                   --------

 TOTAL STORAGE CHANGE =          46097.59         STORAGE CHANGE =         -11627.70
       --------------                             --------------
         LAND SURFACE =         722216.94           LAND SURFACE =                  
            SOIL ZONE =        1074084.44              SOIL ZONE =            170.19
     UNSATURATED ZONE =       -2391292.07       UNSATURATED ZONE =         -14845.21
       SATURATED ZONE =         641088.29         SATURATED ZONE =           3047.32

 OVERALL BUDGET ERROR =          -1717.08           BUDGET ERROR =             -2.09


  PERCENT DISCREPANCY =             -0.08    PERCENT DISCREPANCY =             -0.02



1
 SUMMARY VOLUMETRIC BUDGET FOR GSFLOW 
 DATE: 01 06 1991              CUMULATIVE TIME STEP:       6
 MODFLOW STRESS PERIOD      5     CURRENT TIME STEP:      98     ITERATIONS:       5

 -----------------------------------------------------------------------------------

   CUMULATIVE VOLUMES               L**3   RATES FOR THIS TIME STEP           L**3/T
   ------------------                      ------------------------

                                     IN                                         IN
                                     --                                         --
        PRECIPITATION =        2276236.55          PRECIPITATION =                  
           STREAMFLOW =                               STREAMFLOW =                  
     GW BOUNDARY FLOW =              2.09       GW BOUNDARY FLOW =              0.22


                                    OUT                                        OUT
                                    ---                                        ---
   EVAPOTRANSPIRATION =        1347715.38     EVAPOTRANSPIRATION =           3177.07
           STREAMFLOW =         989364.44             STREAMFLOW =          11676.00
     GW BOUNDARY FLOW =           3519.16       GW BOUNDARY FLOW =             35.75

   INFLOWS - OUTFLOWS =         -64360.34     INFLOWS - OUTFLOWS =         -14888.59
             --------                                   --------

 TOTAL STORAGE CHANGE =         -62620.80         STORAGE CHANGE =         -14884.47
       --------------                             --------------
         LAND SURFACE =         592099.77           LAND SURFACE =          -8106.31
            SOIL ZONE =        1178482.28              SOIL ZONE =           5112.09
     UNSATURATED ZONE =       -2492880.63       UNSATURATED ZONE =         -14283.63
       SATURATED ZONE =         659677.78         SATURATED ZONE =           2393.37

 OVERALL BUDGET ERROR =          -1739.54           BUDGET ERROR =             -4.12


  PERCENT DISCREPANCY =             -0.07    PERCENT DISCREPANCY =             -0.03



1
 SUMMARY VOLUMETRIC BUDGET FOR GSFLOW 
 DATE: 01 13 1991              CUMULATIVE TIME STEP:      13
 MODFLOW STRESS PERIOD      5     CURRENT TIME STEP:     105     ITERATIONS:       6

 -----------------------------------------------------------------------------------

   CUMULATIVE VOLUMES               L**3   RATES FOR THIS TIME STEP           L**3/T
   ------------------                      ------------------------

                                     IN                                         IN
                                     --                                         --
        PRECIPITATION =        2596386.94          PRECIPITATION =          10327.43
           STREAMFLOW =                               STREAMFLOW =                  
     GW BOUNDARY FLOW =              4.02       GW BOUNDARY FLOW =              0.31


                                    OUT                                        OUT
                                    ---                                        ---
   EVAPOTRANSPIRATION =        1413616.03     EVAPOTRANSPIRATION =          17882.15
           STREAMFLOW =        1071003.92             STREAMFLOW =          11527.65
     GW BOUNDARY FLOW =           3769.36       GW BOUNDARY FLOW =             35.72

   INFLOWS - OUTFLOWS =         108001.65     INFLOWS - OUTFLOWS =         -19117.78
             --------                                   --------

 TOTAL STORAGE CHANGE =         109771.66         STORAGE CHANGE =         -19114.87
       --------------                             --------------
         LAND SURFACE =         529885.07           LAND SURFACE =        -135264.71
            SOIL ZONE =        1497801.85              SOIL ZONE =         128911.04
     UNSATURATED ZONE =       -2590413.30       UNSATURATED ZONE =         -13720.61
       SATURATED ZONE =         672498.05         SATURATED ZONE =            959.41

 OVERALL BUDGET ERROR =          -1770.01           BUDGET ERROR =             -2.91


  PERCENT DISCREPANCY =             -0.07    PERCENT DISCREPANCY =             -0.01



1
 SUMMARY VOLUMETRIC BUDGET FOR GSFLOW 
 DATE: 01 20 1991              CUMULATIVE TIME STEP:      20
 MODFLOW STRESS PERIOD      5     CURRENT TIME STEP:     112     ITERATIONS:       5

 -----------------------------------------------------------------------------------

   CUMULATIVE VOLUMES               L**3   RATES FOR THIS TIME STEP           L**3/T
   ------------------                      ------------------------

                                     IN                                         IN
                                     --                                         --
        PRECIPITATION =        2596386.94          PRECIPITATION =                  
           STREAMFLOW =                               STREAMFLOW =                  
     GW BOUNDARY FLOW =              6.55       GW BOUNDARY FLOW =              0.40


                                    OUT                                        OUT
                                    ---                                        ---
   EVAPOTRANSPIRATION =        1488105.81     EVAPOTRANSPIRATION =           2346.07
           STREAMFLOW =        1153091.95             STREAMFLOW =          11773.97
     GW BOUNDARY FLOW =           4019.58       GW BOUNDARY FLOW =             35.75

   INFLOWS - OUTFLOWS =         -48823.85     INFLOWS - OUTFLOWS =         -14155.39
             --------                                   --------

 TOTAL STORAGE CHANGE =         -47008.04         STORAGE CHANGE =         -14147.78
       --------------                             --------------
         LAND SURFACE =         356897.60           LAND SURFACE =           -433.81
            SOIL ZONE =        1598945.06              SOIL ZONE =          -1664.92
     UNSATURATED ZONE =       -2684041.45       UNSATURATED ZONE =         -13153.15
       SATURATED ZONE =         681190.75         SATURATED ZONE =           1104.10

 OVERALL BUDGET ERROR =          -1815.81           BUDGET ERROR =             -7.61


  PERCENT DISCREPANCY =             -0.07    PERCENT DISCREPANCY =             -0.05



1
 SUMMARY VOLUMETRIC BUDGET FOR GSFLOW 
 DATE: 01 27 1991              CUMULATIVE TIME STEP:      27
 MODFLOW STRESS PERIOD      5     CURRENT TIME STEP:     119     ITERATIONS:       5

 -----------------------------------------------------------------------------------

   CUMULATIVE VOLUMES               L**3   RATES FOR THIS TIME STEP           L**3/T
   ------------------                      ------------------------

                                     IN                                         IN
                                     --                                         --
        PRECIPITATION =        2596386.94          PRECIPITATION =                  
           STREAMFLOW =                               STREAMFLOW =                  
     GW BOUNDARY FLOW =              9.66       GW BOUNDARY FLOW =              0.48


                                    OUT                                        OUT
                                    ---                                        ---
   EVAPOTRANSPIRATION =        1512749.36     EVAPOTRANSPIRATION =           1659.73
           STREAMFLOW =        1235686.96             STREAMFLOW =          11834.97
     GW BOUNDARY FLOW =           4269.77       GW BOUNDARY FLOW =             35.74

   INFLOWS - OUTFLOWS =        -156309.49     INFLOWS - OUTFLOWS =         -13529.96
             --------                                   --------

 TOTAL STORAGE CHANGE =        -154433.85         STORAGE CHANGE =         -13520.95
       --------------                             --------------
         LAND SURFACE =         323033.09           LAND SURFACE =           -547.84
            SOIL ZONE =        1610255.54              SOIL ZONE =           -896.09
     UNSATURATED ZONE =       -2774189.47       UNSATURATED ZONE =         -12661.24
       SATURATED ZONE =         686467.00         SATURATED ZONE =            584.22

 OVERALL BUDGET ERROR =          -1875.64           BUDGET ERROR =             -9.01


  PERCENT DISCREPANCY =             -0.07    PERCENT DISCREPANCY =             -0.07



1
 SUMMARY VOLUMETRIC BUDGET FOR GSFLOW 
 DATE: 02 03 1991              CUMULATIVE TIME STEP:       3
 MODFLOW STRESS PERIOD      6     CURRENT TIME STEP:     126     ITERATIONS:       6

 -----------------------------------------------------------------------------------

   CUMULATIVE VOLUMES               L**3   RATES FOR THIS TIME STEP           L**3/T
   ------------------                      ------------------------

                                     IN                                         IN
                                     --                                         --
        PRECIPITATION =        3228422.31          PRECIPITATION =          30459.53
           STREAMFLOW =                               STREAMFLOW =                  
     GW BOUNDARY FLOW =             13.31       GW BOUNDARY FLOW =              0.55


                                    OUT                                        OUT
                                    ---                                        ---
   EVAPOTRANSPIRATION =        1615978.38     EVAPOTRANSPIRATION =          20946.07
           STREAMFLOW =        1318556.79             STREAMFLOW =          11871.51
     GW BOUNDARY FLOW =           4519.89       GW BOUNDARY FLOW =             35.73

   INFLOWS - OUTFLOWS =         289380.56     INFLOWS - OUTFLOWS =          -2393.22
             --------                                   --------

 TOTAL STORAGE CHANGE =         291314.54         STORAGE CHANGE =          -2388.58
       --------------                             --------------
         LAND SURFACE =         157683.43           LAND SURFACE =         -26376.35
            SOIL ZONE =        2308173.65              SOIL ZONE =          36381.76
     UNSATURATED ZONE =       -2861098.65       UNSATURATED ZONE =         -12210.78
       SATURATED ZONE =         686556.11         SATURATED ZONE =           -183.21

 OVERALL BUDGET ERROR =          -1933.98           BUDGET ERROR =             -4.64


  PERCENT DISCREPANCY =             -0.06    PERCENT DISCREPANCY =             -0.01



1
 SUMMARY VOLUMETRIC BUDGET FOR GSFLOW 
 DATE: 02 10 1991              CUMULATIVE TIME STEP:      10
 MODFLOW STRESS PERIOD      6     CURRENT TIME STEP:     133     ITERATIONS:       8

 -----------------------------------------------------------------------------------

   CUMULATIVE VOLUMES               L**3   RATES FOR THIS TIME STEP           L**3/T
   ------------------                      ------------------------

                                     IN                                         IN
                                     --                                         --
        PRECIPITATION =        3510173.01          PRECIPITATION =                  
           STREAMFLOW =                               STREAMFLOW =                  
     GW BOUNDARY FLOW =             17.49       GW BOUNDARY FLOW =              0.63


                                    OUT                                        OUT
                                    ---                                        ---
   EVAPOTRANSPIRATION =        1782257.53     EVAPOTRANSPIRATION =          25230.74
           STREAMFLOW =        1400925.49             STREAMFLOW =          11613.97
     GW BOUNDARY FLOW =           4769.87       GW BOUNDARY FLOW =             35.71

   INFLOWS - OUTFLOWS =         322237.60     INFLOWS - OUTFLOWS =         -36879.80
             --------                                   --------

 TOTAL STORAGE CHANGE =         324221.08         STORAGE CHANGE =         -36878.72
       --------------                             --------------
         LAND SURFACE =          75877.11           LAND SURFACE =          -8469.89
            SOIL ZONE =        2507596.56              SOIL ZONE =         -16386.87
     UNSATURATED ZONE =       -2944375.28       UNSATURATED ZONE =         -11731.30
       SATURATED ZONE =         685122.69         SATURATED ZONE =           -290.65

 OVERALL BUDGET ERROR =          -1983.48           BUDGET ERROR =             -1.08


  PERCENT DISCREPANCY =             -0.06    PERCENT DISCREPANCY =             -0.00



1
 SUMMARY VOLUMETRIC BUDGET FOR GSFLOW 
 DATE: 02 17 1991              CUMULATIVE TIME STEP:      17
 MODFLOW STRESS PERIOD      6     CURRENT TIME STEP:     140     ITERATIONS:       5

 -----------------------------------------------------------------------------------

   CUMULATIVE VOLUMES               L**3   RATES FOR THIS TIME STEP           L**3/T
   ------------------                      ------------------------

                                     IN                                         IN
                                     --                                         --
        PRECIPITATION =        3510173.01          PRECIPITATION =                  
           STREAMFLOW =                               STREAMFLOW =                  
     GW BOUNDARY FLOW =             22.16       GW BOUNDARY FLOW =              0.70


                                    OUT                                        OUT
                                    ---                                        ---
   EVAPOTRANSPIRATION =        2022204.70     EVAPOTRANSPIRATION =          23543.98
           STREAMFLOW =        1483990.71             STREAMFLOW =          11910.63
     GW BOUNDARY FLOW =           5019.76       GW BOUNDARY FLOW =             35.67

   INFLOWS - OUTFLOWS =          -1020.00     INFLOWS - OUTFLOWS =         -35489.59
             --------                                   --------

 TOTAL STORAGE CHANGE =           1029.97         STORAGE CHANGE =         -35476.12
       --------------                             --------------
         LAND SURFACE =          17890.99           LAND SURFACE =          -1143.67
            SOIL ZONE =        2327932.38              SOIL ZONE =         -22218.45
     UNSATURATED ZONE =       -3024233.12       UNSATURATED ZONE =         -11102.73
       SATURATED ZONE =         679439.73         SATURATED ZONE =          -1011.27

 OVERALL BUDGET ERROR =          -2049.97           BUDGET ERROR =            -13.47


  PERCENT DISCREPANCY =             -0.06    PERCENT DISCREPANCY =             -0.04



1
 SUMMARY VOLUMETRIC BUDGET FOR GSFLOW 
 DATE: 02 24 1991              CUMULATIVE TIME STEP:      24
 MODFLOW STRESS PERIOD      6     CURRENT TIME STEP:     147     ITERATIONS:       7

 -----------------------------------------------------------------------------------

   CUMULATIVE VOLUMES               L**3   RATES FOR THIS TIME STEP           L**3/T
   ------------------                      ------------------------

                                     IN                                         IN
                                     --                                         --
        PRECIPITATION =        3510173.01          PRECIPITATION =                  
           STREAMFLOW =                               STREAMFLOW =                  
     GW BOUNDARY FLOW =             27.31       GW BOUNDARY FLOW =              0.76


                                    OUT                                        OUT
                                    ---                                        ---
   EVAPOTRANSPIRATION =        2234826.90     EVAPOTRANSPIRATION =          21593.97
           STREAMFLOW =        1566419.61             STREAMFLOW =          11806.99
     GW BOUNDARY FLOW =           5268.76       GW BOUNDARY FLOW =             35.50

   INFLOWS - OUTFLOWS =        -296314.95     INFLOWS - OUTFLOWS =         -33435.69
             --------                                   --------

 TOTAL STORAGE CHANGE =        -294204.06         STORAGE CHANGE =         -33432.49
       --------------                             --------------
         LAND SURFACE =           7435.72           LAND SURFACE =           -217.69
            SOIL ZONE =        2127289.03              SOIL ZONE =         -21144.40
     UNSATURATED ZONE =       -3100285.07       UNSATURATED ZONE =         -10682.44
       SATURATED ZONE =         671356.26         SATURATED ZONE =          -1387.96

 OVERALL BUDGET ERROR =          -2110.90           BUDGET ERROR =             -3.20


  PERCENT DISCREPANCY =             -0.06    PERCENT DISCREPANCY =             -0.01



1
 SUMMARY VOLUMETRIC BUDGET FOR GSFLOW 
 DATE: 03 03 1991              CUMULATIVE TIME STEP:       3
 MODFLOW STRESS PERIOD      7     CURRENT TIME STEP:     154     ITERATIONS:       5

 -----------------------------------------------------------------------------------

   CUMULATIVE VOLUMES               L**3   RATES FOR THIS TIME STEP           L**3/T
   ------------------                      ------------------------

                                     IN                                         IN
                                     --                                         --
        PRECIPITATION =        6220189.63          PRECIPITATION =        1243187.24
           STREAMFLOW =                               STREAMFLOW =                  
     GW BOUNDARY FLOW =             32.91       GW BOUNDARY FLOW =              0.83


                                    OUT                                        OUT
                                    ---                                        ---
   EVAPOTRANSPIRATION =        2386959.21     EVAPOTRANSPIRATION =           8339.28
           STREAMFLOW =        1649436.71             STREAMFLOW =          11811.98
     GW BOUNDARY FLOW =           5516.59       GW BOUNDARY FLOW =             35.32

   INFLOWS - OUTFLOWS =        2178310.03     INFLOWS - OUTFLOWS =        1223001.49
             --------                                   --------

 TOTAL STORAGE CHANGE =        2180505.97         STORAGE CHANGE =        1223017.90
       --------------                             --------------
         LAND SURFACE =        2352423.56           LAND SURFACE =         893797.52
            SOIL ZONE =        2343740.57              SOIL ZONE =         341840.63
     UNSATURATED ZONE =       -3173373.96       UNSATURATED ZONE =         -10270.89
       SATURATED ZONE =         657715.80         SATURATED ZONE =          -2349.35

 OVERALL BUDGET ERROR =          -2195.93           BUDGET ERROR =            -16.41


  PERCENT DISCREPANCY =             -0.04    PERCENT DISCREPANCY =             -0.00



1
 SUMMARY VOLUMETRIC BUDGET FOR GSFLOW 
 DATE: 03 10 1991              CUMULATIVE TIME STEP:      10
 MODFLOW STRESS PERIOD      7     CURRENT TIME STEP:     161     ITERATIONS:       5

 -----------------------------------------------------------------------------------

   CUMULATIVE VOLUMES               L**3   RATES FOR THIS TIME STEP           L**3/T
   ------------------                      ------------------------

                                     IN                                         IN
                                     --                                         --
        PRECIPITATION =        8746030.42          PRECIPITATION =          32888.55
           STREAMFLOW =                               STREAMFLOW =                  
     GW BOUNDARY FLOW =             38.95       GW BOUNDARY FLOW =              0.89


                                    OUT                                        OUT
                                    ---                                        ---
   EVAPOTRANSPIRATION =        2450866.13     EVAPOTRANSPIRATION =           7260.77
           STREAMFLOW =        1763415.47             STREAMFLOW =          12543.46
     GW BOUNDARY FLOW =           5764.06       GW BOUNDARY FLOW =             35.23

   INFLOWS - OUTFLOWS =        4526023.72     INFLOWS - OUTFLOWS =          13049.98
             --------                                   --------

 TOTAL STORAGE CHANGE =        4528297.18         STORAGE CHANGE =          13067.82
       --------------                             --------------
         LAND SURFACE =        2489799.29           LAND SURFACE =         -20139.51
            SOIL ZONE =        4584825.02              SOIL ZONE =          36716.79
     UNSATURATED ZONE =       -3189912.20       UNSATURATED ZONE =          -1284.05
       SATURATED ZONE =         643585.06         SATURATED ZONE =          -2225.41

 OVERALL BUDGET ERROR =          -2273.46           BUDGET ERROR =            -17.84


  PERCENT DISCREPANCY =             -0.03    PERCENT DISCREPANCY =             -0.05



1
 SUMMARY VOLUMETRIC BUDGET FOR GSFLOW 
 DATE: 03 17 1991              CUMULATIVE TIME STEP:      17
 MODFLOW STRESS PERIOD      7     CURRENT TIME STEP:     168     ITERATIONS:       5

 -----------------------------------------------------------------------------------

   CUMULATIVE VOLUMES               L**3   RATES FOR THIS TIME STEP           L**3/T
   ------------------                      ------------------------

                                     IN                                         IN
                                     --                                         --
        PRECIPITATION =        9897129.71          PRECIPITATION =         157865.04
           STREAMFLOW =                               STREAMFLOW =                  
     GW BOUNDARY FLOW =             45.41       GW BOUNDARY FLOW =              0.95


                                    OUT                                        OUT
                                    ---                                        ---
   EVAPOTRANSPIRATION =        2474323.11     EVAPOTRANSPIRATION =           6883.70
           STREAMFLOW =        1852657.60             STREAMFLOW =          12808.73
     GW BOUNDARY FLOW =           6010.23       GW BOUNDARY FLOW =             35.11

   INFLOWS - OUTFLOWS =        5564184.19     INFLOWS - OUTFLOWS =         138138.45
             --------                                   --------

 TOTAL STORAGE CHANGE =        5566567.51         STORAGE CHANGE =         138157.67
       --------------                             --------------
         LAND SURFACE =        3617387.87           LAND SURFACE =         151296.14
            SOIL ZONE =        4521479.22              SOIL ZONE =          -8680.88
     UNSATURATED ZONE =       -3200531.08       UNSATURATED ZONE =          -1927.86
       SATURATED ZONE =         628231.49         SATURATED ZONE =          -2529.72

 OVERALL BUDGET ERROR =          -2383.31           BUDGET ERROR =            -19.22


  PERCENT DISCREPANCY =             -0.02    PERCENT DISCREPANCY =             -0.01



1
 SUMMARY VOLUMETRIC BUDGET FOR GSFLOW 
 DATE: 03 24 1991              CUMULATIVE TIME STEP:      24
 MODFLOW STRESS PERIOD      7     CURRENT TIME STEP:     175     ITERATIONS:       5

 -----------------------------------------------------------------------------------

   CUMULATIVE VOLUMES               L**3   RATES FOR THIS TIME STEP           L**3/T
   ------------------                      ------------------------

                                     IN                                         IN
                                     --                                         --
        PRECIPITATION =        1.1673D+07          PRECIPITATION =        1230031.83
           STREAMFLOW =                               STREAMFLOW =                  
     GW BOUNDARY FLOW =             52.28       GW BOUNDARY FLOW =              1.01


                                    OUT                                        OUT
                                    ---                                        ---
   EVAPOTRANSPIRATION =        2508959.02     EVAPOTRANSPIRATION =           4290.15
           STREAMFLOW =        1943926.98             STREAMFLOW =          13213.07
     GW BOUNDARY FLOW =           6255.53       GW BOUNDARY FLOW =             35.00

   INFLOWS - OUTFLOWS =        7214022.25     INFLOWS - OUTFLOWS =        1212494.62
             --------                                   --------

 TOTAL STORAGE CHANGE =        7216520.00         STORAGE CHANGE =        1212514.17
       --------------                             --------------
         LAND SURFACE =        5347521.52           LAND SURFACE =        1227877.70
            SOIL ZONE =        4473556.07              SOIL ZONE =         -10550.91
     UNSATURATED ZONE =       -3215331.91       UNSATURATED ZONE =          -2277.49
       SATURATED ZONE =         610774.32         SATURATED ZONE =          -2535.13

 OVERALL BUDGET ERROR =          -2497.75           BUDGET ERROR =            -19.54


  PERCENT DISCREPANCY =             -0.02    PERCENT DISCREPANCY =             -0.00



1
 SUMMARY VOLUMETRIC BUDGET FOR GSFLOW 
 DATE: 03 31 1991              CUMULATIVE TIME STEP:      31
 MODFLOW STRESS PERIOD      7     CURRENT TIME STEP:     182     ITERATIONS:       5

 -----------------------------------------------------------------------------------

   CUMULATIVE VOLUMES               L**3   RATES FOR THIS TIME STEP           L**3/T
   ------------------                      ------------------------

                                     IN                                         IN
                                     --                                         --
        PRECIPITATION =        1.2495D+07          PRECIPITATION =                  
           STREAMFLOW =                               STREAMFLOW =                  
     GW BOUNDARY FLOW =             59.55       GW BOUNDARY FLOW =              1.06


                                    OUT                                        OUT
                                    ---                                        ---
   EVAPOTRANSPIRATION =        2629979.92     EVAPOTRANSPIRATION =          47925.31
           STREAMFLOW =        2039210.83             STREAMFLOW =          14300.60
     GW BOUNDARY FLOW =           6500.15       GW BOUNDARY FLOW =             34.92

   INFLOWS - OUTFLOWS =        7819693.93     INFLOWS - OUTFLOWS =         -62259.77
             --------                                   --------

 TOTAL STORAGE CHANGE =        7822330.27         STORAGE CHANGE =         -62239.75
       --------------                             --------------
         LAND SURFACE =        5892155.22           LAND SURFACE =        -150773.77
            SOIL ZONE =        4567627.36              SOIL ZONE =          92207.67
     UNSATURATED ZONE =       -3230155.86       UNSATURATED ZONE =          -1077.25
       SATURATED ZONE =         592703.55         SATURATED ZONE =          -2596.40

 OVERALL BUDGET ERROR =          -2636.33           BUDGET ERROR =            -20.02


  PERCENT DISCREPANCY =             -0.02    PERCENT DISCREPANCY =             -0.03



1
 SUMMARY VOLUMETRIC BUDGET FOR GSFLOW 
 DATE: 04 07 1991              CUMULATIVE TIME STEP:       7
 MODFLOW STRESS PERIOD      8     CURRENT TIME STEP:     189     ITERATIONS:       6

 -----------------------------------------------------------------------------------

   CUMULATIVE VOLUMES               L**3   RATES FOR THIS TIME STEP           L**3/T
   ------------------                      ------------------------

                                     IN                                         IN
                                     --                                         --
        PRECIPITATION =        1.3018D+07          PRECIPITATION =                  
           STREAMFLOW =                               STREAMFLOW =                  
     GW BOUNDARY FLOW =             67.18       GW BOUNDARY FLOW =              1.11


                                    OUT                                        OUT
                                    ---                                        ---
   EVAPOTRANSPIRATION =        2937863.19     EVAPOTRANSPIRATION =          15898.60
           STREAMFLOW =        2272709.63             STREAMFLOW =          43364.91
     GW BOUNDARY FLOW =           6746.31       GW BOUNDARY FLOW =             35.33

   INFLOWS - OUTFLOWS =        7800484.79     INFLOWS - OUTFLOWS =         -59297.74
             --------                                   --------

 TOTAL STORAGE CHANGE =        7803207.18         STORAGE CHANGE =         -59289.19
       --------------                             --------------
         LAND SURFACE =        4252635.06           LAND SURFACE =         -72897.15
            SOIL ZONE =        6168548.50              SOIL ZONE =           4248.04
     UNSATURATED ZONE =       -3194862.84       UNSATURATED ZONE =          11126.33
       SATURATED ZONE =         576886.46         SATURATED ZONE =          -1766.42

 OVERALL BUDGET ERROR =          -2722.39           BUDGET ERROR =             -8.54


  PERCENT DISCREPANCY =             -0.02    PERCENT DISCREPANCY =             -0.01



1
 SUMMARY VOLUMETRIC BUDGET FOR GSFLOW 
 DATE: 04 14 1991              CUMULATIVE TIME STEP:      14
 MODFLOW STRESS PERIOD      8     CURRENT TIME STEP:     196     ITERATIONS:       7

 -----------------------------------------------------------------------------------

   CUMULATIVE VOLUMES               L**3   RATES FOR THIS TIME STEP           L**3/T
   ------------------                      ------------------------

                                     IN                                         IN
                                     --                                         --
        PRECIPITATION =        1.3018D+07          PRECIPITATION =                  
           STREAMFLOW =                               STREAMFLOW =                  
     GW BOUNDARY FLOW =             75.14       GW BOUNDARY FLOW =              1.16


                                    OUT                                        OUT
                                    ---                                        ---
   EVAPOTRANSPIRATION =        3121786.02     EVAPOTRANSPIRATION =          42060.22
           STREAMFLOW =        2704133.96             STREAMFLOW =          74679.82
     GW BOUNDARY FLOW =           6994.76       GW BOUNDARY FLOW =             35.60

   INFLOWS - OUTFLOWS =        7184897.15     INFLOWS - OUTFLOWS =        -116774.49
             --------                                   --------

 TOTAL STORAGE CHANGE =        7187652.07         STORAGE CHANGE =        -116771.61
       --------------                             --------------
         LAND SURFACE =        3592422.63           LAND SURFACE =        -191140.97
            SOIL ZONE =        6147323.16              SOIL ZONE =          65099.47
     UNSATURATED ZONE =       -3120663.40       UNSATURATED ZONE =          10132.86
       SATURATED ZONE =         568569.68         SATURATED ZONE =           -862.96

 OVERALL BUDGET ERROR =          -2754.92           BUDGET ERROR =             -2.88


  PERCENT DISCREPANCY =             -0.02    PERCENT DISCREPANCY =             -0.00



1
 SUMMARY VOLUMETRIC BUDGET FOR GSFLOW 
 DATE: 04 21 1991              CUMULATIVE TIME STEP:      21
 MODFLOW STRESS PERIOD      8     CURRENT TIME STEP:     203     ITERATIONS:       9

 -----------------------------------------------------------------------------------

   CUMULATIVE VOLUMES               L**3   RATES FOR THIS TIME STEP           L**3/T
   ------------------                      ------------------------

                                     IN                                         IN
                                     --                                         --
        PRECIPITATION =        1.3034D+07          PRECIPITATION =                  
           STREAMFLOW =                               STREAMFLOW =                  
     GW BOUNDARY FLOW =             83.40       GW BOUNDARY FLOW =              1.20


                                    OUT                                        OUT
                                    ---                                        ---
   EVAPOTRANSPIRATION =        3375407.02     EVAPOTRANSPIRATION =          46843.68
           STREAMFLOW =        3260056.38             STREAMFLOW =          91393.43
     GW BOUNDARY FLOW =           7243.87       GW BOUNDARY FLOW =             35.68

   INFLOWS - OUTFLOWS =        6391438.23     INFLOWS - OUTFLOWS =        -138271.58
             --------                                   --------

 TOTAL STORAGE CHANGE =        6394207.96         STORAGE CHANGE =        -138270.63
       --------------                             --------------
         LAND SURFACE =        2435410.73           LAND SURFACE =        -213938.54
            SOIL ZONE =        6440977.52              SOIL ZONE =          63988.40
     UNSATURATED ZONE =       -3046459.75       UNSATURATED ZONE =          12074.18
       SATURATED ZONE =         564279.46         SATURATED ZONE =           -394.66

 OVERALL BUDGET ERROR =          -2769.74           BUDGET ERROR =             -0.96


  PERCENT DISCREPANCY =             -0.02    PERCENT DISCREPANCY =             -0.00



1
 SUMMARY VOLUMETRIC BUDGET FOR GSFLOW 
 DATE: 04 28 1991              CUMULATIVE TIME STEP:      28
 MODFLOW STRESS PERIOD      8     CURRENT TIME STEP:     210     ITERATIONS:       7

 -----------------------------------------------------------------------------------

   CUMULATIVE VOLUMES               L**3   RATES FOR THIS TIME STEP           L**3/T
   ------------------                      ------------------------

                                     IN                                         IN
                                     --                                         --
        PRECIPITATION =        1.3303D+07          PRECIPITATION =                  
           STREAMFLOW =                               STREAMFLOW =                  
     GW BOUNDARY FLOW =             91.94       GW BOUNDARY FLOW =              1.24


                                    OUT                                        OUT
                                    ---                                        ---
   EVAPOTRANSPIRATION =        3643508.98     EVAPOTRANSPIRATION =          58070.50
           STREAMFLOW =        3910387.64             STREAMFLOW =          92542.95
     GW BOUNDARY FLOW =           7493.25       GW BOUNDARY FLOW =             35.58

   INFLOWS - OUTFLOWS =        5742132.57     INFLOWS - OUTFLOWS =        -150647.79
             --------                                   --------

 TOTAL STORAGE CHANGE =        5744914.86         STORAGE CHANGE =        -150646.54
       --------------                             --------------
         LAND SURFACE =        1696862.83           LAND SURFACE =        -133863.59
            SOIL ZONE =        6445901.24              SOIL ZONE =         -28336.47
     UNSATURATED ZONE =       -2962395.46       UNSATURATED ZONE =          11423.75
       SATURATED ZONE =         564546.26         SATURATED ZONE =            129.77

 OVERALL BUDGET ERROR =          -2782.29           BUDGET ERROR =             -1.25


  PERCENT DISCREPANCY =             -0.02    PERCENT DISCREPANCY =             -0.00



1
 SUMMARY VOLUMETRIC BUDGET FOR GSFLOW 
 DATE: 05 05 1991              CUMULATIVE TIME STEP:       5
 MODFLOW STRESS PERIOD      9     CURRENT TIME STEP:     217     ITERATIONS:       7

 -----------------------------------------------------------------------------------

   CUMULATIVE VOLUMES               L**3   RATES FOR THIS TIME STEP           L**3/T
   ------------------                      ------------------------

                                     IN                                         IN
                                     --                                         --
        PRECIPITATION =        1.3510D+07          PRECIPITATION =                  
           STREAMFLOW =                               STREAMFLOW =                  
     GW BOUNDARY FLOW =            100.73       GW BOUNDARY FLOW =              1.27


                                    OUT                                        OUT
                                    ---                                        ---
   EVAPOTRANSPIRATION =        4020266.74     EVAPOTRANSPIRATION =          90182.26
           STREAMFLOW =        4483198.46             STREAMFLOW =          83193.09
     GW BOUNDARY FLOW =           7740.95       GW BOUNDARY FLOW =             35.33

   INFLOWS - OUTFLOWS =        4998602.72     INFLOWS - OUTFLOWS =        -173409.41
             --------                                   --------

 TOTAL STORAGE CHANGE =        5001392.58         STORAGE CHANGE =        -173408.91
       --------------                             --------------
         LAND SURFACE =        1003116.62           LAND SURFACE =        -147007.10
            SOIL ZONE =        6323542.78              SOIL ZONE =         -36639.30
     UNSATURATED ZONE =       -2890106.34       UNSATURATED ZONE =          10118.89
       SATURATED ZONE =         564839.51         SATURATED ZONE =            118.61

 OVERALL BUDGET ERROR =          -2789.86           BUDGET ERROR =             -0.50


  PERCENT DISCREPANCY =             -0.02    PERCENT DISCREPANCY =             -0.00



1
 SUMMARY VOLUMETRIC BUDGET FOR GSFLOW 
 DATE: 05 12 1991              CUMULATIVE TIME STEP:      12
 MODFLOW STRESS PERIOD      9     CURRENT TIME STEP:     224     ITERATIONS:       7

 -----------------------------------------------------------------------------------

   CUMULATIVE VOLUMES               L**3   RATES FOR THIS TIME STEP           L**3/T
   ------------------                      ------------------------

                                     IN                                         IN
                                     --                                         --
        PRECIPITATION =        1.4029D+07          PRECIPITATION =                  
           STREAMFLOW =                               STREAMFLOW =                  
     GW BOUNDARY FLOW =            109.80       GW BOUNDARY FLOW =              1.31


                                    OUT                                        OUT
                                    ---                                        ---
   EVAPOTRANSPIRATION =        4415654.02     EVAPOTRANSPIRATION =          68750.33
           STREAMFLOW =        5019208.04             STREAMFLOW =          85475.73
     GW BOUNDARY FLOW =           7986.98       GW BOUNDARY FLOW =             35.17

   INFLOWS - OUTFLOWS =        4586482.92     INFLOWS - OUTFLOWS =        -154259.91
             --------                                   --------

 TOTAL STORAGE CHANGE =        4589275.69         STORAGE CHANGE =        -154259.44
       --------------                             --------------
         LAND SURFACE =         555531.38           LAND SURFACE =        -204072.74
            SOIL ZONE =        6294322.34              SOIL ZONE =          40784.78
     UNSATURATED ZONE =       -2828488.30       UNSATURATED ZONE =           8739.76
       SATURATED ZONE =         567910.26         SATURATED ZONE =            288.76

 OVERALL BUDGET ERROR =          -2792.77           BUDGET ERROR =             -0.47


  PERCENT DISCREPANCY =             -0.02    PERCENT DISCREPANCY =             -0.00



1
 SUMMARY VOLUMETRIC BUDGET FOR GSFLOW 
 DATE: 05 19 1991              CUMULATIVE TIME STEP:      19
 MODFLOW STRESS PERIOD      9     CURRENT TIME STEP:     231     ITERATIONS:       7

 -----------------------------------------------------------------------------------

   CUMULATIVE VOLUMES               L**3   RATES FOR THIS TIME STEP           L**3/T
   ------------------                      ------------------------

                                     IN                                         IN
                                     --                                         --
        PRECIPITATION =        1.4365D+07          PRECIPITATION =                  
           STREAMFLOW =                               STREAMFLOW =                  
     GW BOUNDARY FLOW =            119.13       GW BOUNDARY FLOW =              1.35


                                    OUT                                        OUT
                                    ---                                        ---
   EVAPOTRANSPIRATION =        4854089.72     EVAPOTRANSPIRATION =          20369.32
           STREAMFLOW =        5465800.94             STREAMFLOW =          55184.82
     GW BOUNDARY FLOW =           8230.72       GW BOUNDARY FLOW =             34.64

   INFLOWS - OUTFLOWS =        4037376.07     INFLOWS - OUTFLOWS =         -75587.44
             --------                                   --------

 TOTAL STORAGE CHANGE =        4040168.67         STORAGE CHANGE =         -75587.78
       --------------                             --------------
         LAND SURFACE =         218834.82           LAND SURFACE =         -22220.84
            SOIL ZONE =        6030816.96              SOIL ZONE =         -59370.48
     UNSATURATED ZONE =       -2780887.28       UNSATURATED ZONE =           5434.68
       SATURATED ZONE =         571404.17         SATURATED ZONE =            568.86

 OVERALL BUDGET ERROR =          -2792.60           BUDGET ERROR =              0.34


  PERCENT DISCREPANCY =             -0.02    PERCENT DISCREPANCY =              0.00



1
 SUMMARY VOLUMETRIC BUDGET FOR GSFLOW 
 DATE: 05 26 1991              CUMULATIVE TIME STEP:      26
 MODFLOW STRESS PERIOD      9     CURRENT TIME STEP:     238     ITERATIONS:       6

 -----------------------------------------------------------------------------------

   CUMULATIVE VOLUMES               L**3   RATES FOR THIS TIME STEP           L**3/T
   ------------------                      ------------------------

                                     IN                                         IN
                                     --                                         --
        PRECIPITATION =        1.4426D+07          PRECIPITATION =                  
           STREAMFLOW =                               STREAMFLOW =                  
     GW BOUNDARY FLOW =            128.75       GW BOUNDARY FLOW =              1.39


                                    OUT                                        OUT
                                    ---                                        ---
   EVAPOTRANSPIRATION =        5538565.95     EVAPOTRANSPIRATION =          76940.71
           STREAMFLOW =        5769392.54             STREAMFLOW =          30991.96
     GW BOUNDARY FLOW =           8471.36       GW BOUNDARY FLOW =             34.12

   INFLOWS - OUTFLOWS =        3110196.51     INFLOWS - OUTFLOWS =        -107965.40
             --------                                   --------

 TOTAL STORAGE CHANGE =        3112987.22         STORAGE CHANGE =        -107964.76
       --------------                             --------------
         LAND SURFACE =          51939.66           LAND SURFACE =          -7710.54
            SOIL ZONE =        5249134.90              SOIL ZONE =         -99898.59
     UNSATURATED ZONE =       -2760860.61       UNSATURATED ZONE =           -164.94
       SATURATED ZONE =         572773.28         SATURATED ZONE =           -190.69

 OVERALL BUDGET ERROR =          -2790.71           BUDGET ERROR =             -0.64


  PERCENT DISCREPANCY =             -0.02    PERCENT DISCREPANCY =             -0.00



1
 SUMMARY VOLUMETRIC BUDGET FOR GSFLOW 
 DATE: 06 02 1991              CUMULATIVE TIME STEP:       2
 MODFLOW STRESS PERIOD     10     CURRENT TIME STEP:     245     ITERATIONS:       6

 -----------------------------------------------------------------------------------

   CUMULATIVE VOLUMES               L**3   RATES FOR THIS TIME STEP           L**3/T
   ------------------                      ------------------------

                                     IN                                         IN
                                     --                                         --
        PRECIPITATION =        1.4671D+07          PRECIPITATION =                  
           STREAMFLOW =                               STREAMFLOW =                  
     GW BOUNDARY FLOW =            138.65       GW BOUNDARY FLOW =              1.43


                                    OUT                                        OUT
                                    ---                                        ---
   EVAPOTRANSPIRATION =        6126892.63     EVAPOTRANSPIRATION =         127367.25
           STREAMFLOW =        5979072.02             STREAMFLOW =          25699.20
     GW BOUNDARY FLOW =           8709.45       GW BOUNDARY FLOW =             33.87

   INFLOWS - OUTFLOWS =        2556439.35     INFLOWS - OUTFLOWS =        -153098.89
             --------                                   --------

 TOTAL STORAGE CHANGE =        2559248.13         STORAGE CHANGE =        -153095.43
       --------------                             --------------
         LAND SURFACE =          18584.49           LAND SURFACE =          -3939.55
            SOIL ZONE =        4747576.93              SOIL ZONE =        -145070.36
     UNSATURATED ZONE =       -2775649.56       UNSATURATED ZONE =          -3167.38
       SATURATED ZONE =         568736.27         SATURATED ZONE =           -918.14

 OVERALL BUDGET ERROR =          -2808.78           BUDGET ERROR =             -3.46


  PERCENT DISCREPANCY =             -0.02    PERCENT DISCREPANCY =             -0.00



1
 SUMMARY VOLUMETRIC BUDGET FOR GSFLOW 
 DATE: 06 09 1991              CUMULATIVE TIME STEP:       9
 MODFLOW STRESS PERIOD     10     CURRENT TIME STEP:     252     ITERATIONS:       7

 -----------------------------------------------------------------------------------

   CUMULATIVE VOLUMES               L**3   RATES FOR THIS TIME STEP           L**3/T
   ------------------                      ------------------------

                                     IN                                         IN
                                     --                                         --
        PRECIPITATION =        1.4671D+07          PRECIPITATION =                  
           STREAMFLOW =                               STREAMFLOW =                  
     GW BOUNDARY FLOW =            148.85       GW BOUNDARY FLOW =              1.47


                                    OUT                                        OUT
                                    ---                                        ---
   EVAPOTRANSPIRATION =        6914112.60     EVAPOTRANSPIRATION =         172205.04
           STREAMFLOW =        6130074.32             STREAMFLOW =          18725.56
     GW BOUNDARY FLOW =           8945.40       GW BOUNDARY FLOW =             33.59

   INFLOWS - OUTFLOWS =        1617991.33     INFLOWS - OUTFLOWS =        -190962.71
             --------                                   --------

 TOTAL STORAGE CHANGE =        1620838.08         STORAGE CHANGE =        -190956.55
       --------------                             --------------
         LAND SURFACE =           3507.01           LAND SURFACE =          -2050.96
            SOIL ZONE =        3871963.89              SOIL ZONE =        -180295.02
     UNSATURATED ZONE =       -2812733.04       UNSATURATED ZONE =          -6528.59
       SATURATED ZONE =         558100.23         SATURATED ZONE =          -2081.99

 OVERALL BUDGET ERROR =          -2846.75           BUDGET ERROR =             -6.17


  PERCENT DISCREPANCY =             -0.02    PERCENT DISCREPANCY =             -0.00



1
 SUMMARY VOLUMETRIC BUDGET FOR GSFLOW 
 DATE: 06 16 1991              CUMULATIVE TIME STEP:      16
 MODFLOW STRESS PERIOD     10     CURRENT TIME STEP:     259     ITERATIONS:       6

 -----------------------------------------------------------------------------------

   CUMULATIVE VOLUMES               L**3   RATES FOR THIS TIME STEP           L**3/T
   ------------------                      ------------------------

                                     IN                                         IN
                                     --                                         --
        PRECIPITATION =        1.4671D+07          PRECIPITATION =                  
           STREAMFLOW =                               STREAMFLOW =                  
     GW BOUNDARY FLOW =            159.33       GW BOUNDARY FLOW =              1.51


                                    OUT                                        OUT
                                    ---                                        ---
   EVAPOTRANSPIRATION =        7929091.93     EVAPOTRANSPIRATION =         116810.15
           STREAMFLOW =        6247823.00             STREAMFLOW =          16252.80
     GW BOUNDARY FLOW =           9179.61       GW BOUNDARY FLOW =             33.38

   INFLOWS - OUTFLOWS =         485039.59     INFLOWS - OUTFLOWS =        -133094.82
             --------                                   --------

 TOTAL STORAGE CHANGE =         487950.01         STORAGE CHANGE =        -133083.93
       --------------                             --------------
         LAND SURFACE =             96.44           LAND SURFACE =            -47.78
            SOIL ZONE =        2848450.51              SOIL ZONE =        -113198.33
     UNSATURATED ZONE =       -2899057.98       UNSATURATED ZONE =         -16208.89
       SATURATED ZONE =         538461.04         SATURATED ZONE =          -3628.92

 OVERALL BUDGET ERROR =          -2910.41           BUDGET ERROR =            -10.89


  PERCENT DISCREPANCY =             -0.02    PERCENT DISCREPANCY =             -0.01



1
 SUMMARY VOLUMETRIC BUDGET FOR GSFLOW 
 DATE: 06 23 1991              CUMULATIVE TIME STEP:      23
 MODFLOW STRESS PERIOD     10     CURRENT TIME STEP:     266     ITERATIONS:       5

 -----------------------------------------------------------------------------------

   CUMULATIVE VOLUMES               L**3   RATES FOR THIS TIME STEP           L**3/T
   ------------------                      ------------------------

                                     IN                                         IN
                                     --                                         --
        PRECIPITATION =        1.4671D+07          PRECIPITATION =                  
           STREAMFLOW =                               STREAMFLOW =                  
     GW BOUNDARY FLOW =            169.90       GW BOUNDARY FLOW =              1.48


                                    OUT                                        OUT
                                    ---                                        ---
   EVAPOTRANSPIRATION =        8471437.12     EVAPOTRANSPIRATION =          38895.54
           STREAMFLOW =        6358004.50             STREAMFLOW =          15454.86
     GW BOUNDARY FLOW =           9412.62       GW BOUNDARY FLOW =             33.22

   INFLOWS - OUTFLOWS =        -167709.54     INFLOWS - OUTFLOWS =         -54382.14
             --------                                   --------

 TOTAL STORAGE CHANGE =        -164716.11         STORAGE CHANGE =         -54361.14
       --------------                             --------------
         LAND SURFACE =             13.79           LAND SURFACE =             -3.53
            SOIL ZONE =        2341774.27              SOIL ZONE =         -35980.06
     UNSATURATED ZONE =       -3011987.53       UNSATURATED ZONE =         -13195.79
       SATURATED ZONE =         505483.37         SATURATED ZONE =          -5181.76

 OVERALL BUDGET ERROR =          -2993.44           BUDGET ERROR =            -21.00


  PERCENT DISCREPANCY =             -0.02    PERCENT DISCREPANCY =             -0.04



1
 SUMMARY VOLUMETRIC BUDGET FOR GSFLOW 
 DATE: 06 30 1991              CUMULATIVE TIME STEP:      30
 MODFLOW STRESS PERIOD     10     CURRENT TIME STEP:     273     ITERATIONS:       5

 -----------------------------------------------------------------------------------

   CUMULATIVE VOLUMES               L**3   RATES FOR THIS TIME STEP           L**3/T
   ------------------                      ------------------------

                                     IN                                         IN
[...]
                                    ---                                        ---
   EVAPOTRANSPIRATION =        7.3538D+07     EVAPOTRANSPIRATION =          75780.86
           STREAMFLOW =        7.0956D+07             STREAMFLOW =          12100.50
     GW BOUNDARY FLOW =          51249.31       GW BOUNDARY FLOW =             25.08

   INFLOWS - OUTFLOWS =       -1.1031D+07     INFLOWS - OUTFLOWS =         -87903.24
             --------                                   --------

 TOTAL STORAGE CHANGE =       -1.1023D+07         STORAGE CHANGE =         -87912.50
       --------------                             --------------
         LAND SURFACE =         174964.05           LAND SURFACE =         -10872.67
            SOIL ZONE =        1882847.52              SOIL ZONE =         -59554.31
     UNSATURATED ZONE =          44846.41       UNSATURATED ZONE =         -12408.57
       SATURATED ZONE =       -1.3126D+07         SATURATED ZONE =          -5076.96

 OVERALL BUDGET ERROR =          -7835.86           BUDGET ERROR =              9.27


  PERCENT DISCREPANCY =             -0.01    PERCENT DISCREPANCY =              0.01



1
 SUMMARY VOLUMETRIC BUDGET FOR GSFLOW 
 DATE: 09 03 1995              CUMULATIVE TIME STEP:       3
 MODFLOW STRESS PERIOD     61     CURRENT TIME STEP:    1799     ITERATIONS:       7

 -----------------------------------------------------------------------------------

   CUMULATIVE VOLUMES               L**3   RATES FOR THIS TIME STEP           L**3/T
   ------------------                      ------------------------

                                     IN                                         IN
                                     --                                         --
        PRECIPITATION =        1.3351D+08          PRECIPITATION =                  
           STREAMFLOW =                               STREAMFLOW =                  
     GW BOUNDARY FLOW =           5419.80       GW BOUNDARY FLOW =              3.31


                                    OUT                                        OUT
                                    ---                                        ---
   EVAPOTRANSPIRATION =        7.4040D+07     EVAPOTRANSPIRATION =          66685.31
           STREAMFLOW =        7.1037D+07             STREAMFLOW =          11376.66
     GW BOUNDARY FLOW =          51424.65       GW BOUNDARY FLOW =             25.03

   INFLOWS - OUTFLOWS =       -1.1615D+07     INFLOWS - OUTFLOWS =         -78083.68
             --------                                   --------

 TOTAL STORAGE CHANGE =       -1.1607D+07         STORAGE CHANGE =         -78090.60
       --------------                             --------------
         LAND SURFACE =         111496.32           LAND SURFACE =          -7601.38
            SOIL ZONE =        1486340.67              SOIL ZONE =         -52686.29
     UNSATURATED ZONE =         -36836.62       UNSATURATED ZONE =         -11424.09
       SATURATED ZONE =       -1.3168D+07         SATURATED ZONE =          -6378.85

 OVERALL BUDGET ERROR =          -7771.77           BUDGET ERROR =              6.93


  PERCENT DISCREPANCY =             -0.01    PERCENT DISCREPANCY =              0.01



1
 SUMMARY VOLUMETRIC BUDGET FOR GSFLOW 
 DATE: 09 10 1995              CUMULATIVE TIME STEP:      10
 MODFLOW STRESS PERIOD     61     CURRENT TIME STEP:    1806     ITERATIONS:       6

 -----------------------------------------------------------------------------------

   CUMULATIVE VOLUMES               L**3   RATES FOR THIS TIME STEP           L**3/T
   ------------------                      ------------------------

                                     IN                                         IN
                                     --                                         --
        PRECIPITATION =        1.3351D+08          PRECIPITATION =                  
           STREAMFLOW =                               STREAMFLOW =                  
     GW BOUNDARY FLOW =           5443.42       GW BOUNDARY FLOW =              3.42


                                    OUT                                        OUT
                                    ---                                        ---
   EVAPOTRANSPIRATION =        7.4416D+07     EVAPOTRANSPIRATION =          50312.25
           STREAMFLOW =        7.1115D+07             STREAMFLOW =          10892.92
     GW BOUNDARY FLOW =          51599.63       GW BOUNDARY FLOW =             24.98

   INFLOWS - OUTFLOWS =       -1.2068D+07     INFLOWS - OUTFLOWS =         -61226.72
             --------                                   --------

 TOTAL STORAGE CHANGE =       -1.2060D+07         STORAGE CHANGE =         -61237.54
       --------------                             --------------
         LAND SURFACE =          73766.31           LAND SURFACE =          -4565.46
            SOIL ZONE =        1191544.41              SOIL ZONE =         -39236.46
     UNSATURATED ZONE =        -112923.98       UNSATURATED ZONE =         -10668.39
       SATURATED ZONE =       -1.3213D+07         SATURATED ZONE =          -6767.23

 OVERALL BUDGET ERROR =          -7711.84           BUDGET ERROR =             10.82


  PERCENT DISCREPANCY =             -0.01    PERCENT DISCREPANCY =              0.02



1
 SUMMARY VOLUMETRIC BUDGET FOR GSFLOW 
 DATE: 09 17 1995              CUMULATIVE TIME STEP:      17
 MODFLOW STRESS PERIOD     61     CURRENT TIME STEP:    1813     ITERATIONS:       7

 -----------------------------------------------------------------------------------

   CUMULATIVE VOLUMES               L**3   RATES FOR THIS TIME STEP           L**3/T
   ------------------                      ------------------------

                                     IN                                         IN
                                     --                                         --
        PRECIPITATION =        1.3351D+08          PRECIPITATION =                  
           STREAMFLOW =                               STREAMFLOW =                  
     GW BOUNDARY FLOW =           5467.76       GW BOUNDARY FLOW =              3.52


                                    OUT                                        OUT
                                    ---                                        ---
   EVAPOTRANSPIRATION =        7.4825D+07     EVAPOTRANSPIRATION =          46668.58
           STREAMFLOW =        7.1188D+07             STREAMFLOW =          10305.45
     GW BOUNDARY FLOW =          51774.23       GW BOUNDARY FLOW =             24.92

   INFLOWS - OUTFLOWS =       -1.2550D+07     INFLOWS - OUTFLOWS =         -56995.43
             --------                                   --------

 TOTAL STORAGE CHANGE =       -1.2543D+07         STORAGE CHANGE =         -56999.51
       --------------                             --------------
         LAND SURFACE =          42893.82           LAND SURFACE =          -2921.51
            SOIL ZONE =         880951.61              SOIL ZONE =         -34334.93
     UNSATURATED ZONE =        -191938.39       UNSATURATED ZONE =         -11459.21
       SATURATED ZONE =       -1.3274D+07         SATURATED ZONE =          -8283.86

 OVERALL BUDGET ERROR =          -7657.10           BUDGET ERROR =              4.08


  PERCENT DISCREPANCY =             -0.01    PERCENT DISCREPANCY =              0.01



1
 SUMMARY VOLUMETRIC BUDGET FOR GSFLOW 
 DATE: 09 24 1995              CUMULATIVE TIME STEP:      24
 MODFLOW STRESS PERIOD     61     CURRENT TIME STEP:    1820     ITERATIONS:       6

 -----------------------------------------------------------------------------------

   CUMULATIVE VOLUMES               L**3   RATES FOR THIS TIME STEP           L**3/T
   ------------------                      ------------------------

                                     IN                                         IN
                                     --                                         --
        PRECIPITATION =        1.3351D+08          PRECIPITATION =                  
           STREAMFLOW =                               STREAMFLOW =                  
     GW BOUNDARY FLOW =           5492.79       GW BOUNDARY FLOW =              3.62


                                    OUT                                        OUT
                                    ---                                        ---
   EVAPOTRANSPIRATION =        7.5114D+07     EVAPOTRANSPIRATION =          30115.55
           STREAMFLOW =        7.1259D+07             STREAMFLOW =          10105.55
     GW BOUNDARY FLOW =          51948.55       GW BOUNDARY FLOW =             24.89

   INFLOWS - OUTFLOWS =       -1.2910D+07     INFLOWS - OUTFLOWS =         -40242.37
             --------                                   --------

 TOTAL STORAGE CHANGE =       -1.2903D+07         STORAGE CHANGE =         -40249.16
       --------------                             --------------
         LAND SURFACE =          27188.16           LAND SURFACE =          -1533.29
            SOIL ZONE =         674514.38              SOIL ZONE =         -20860.32
     UNSATURATED ZONE =        -269022.29       UNSATURATED ZONE =         -10291.06
       SATURATED ZONE =       -1.3335D+07         SATURATED ZONE =          -7564.49

 OVERALL BUDGET ERROR =          -7626.16           BUDGET ERROR =              6.78


  PERCENT DISCREPANCY =             -0.01    PERCENT DISCREPANCY =              0.02



1
 SUMMARY VOLUMETRIC BUDGET FOR GSFLOW 
 DATE: 10 01 1995              CUMULATIVE TIME STEP:       1
 MODFLOW STRESS PERIOD     62     CURRENT TIME STEP:    1827     ITERATIONS:       6

 -----------------------------------------------------------------------------------

   CUMULATIVE VOLUMES               L**3   RATES FOR THIS TIME STEP           L**3/T
   ------------------                      ------------------------

                                     IN                                         IN
                                     --                                         --
        PRECIPITATION =        1.3351D+08          PRECIPITATION =                  
           STREAMFLOW =                               STREAMFLOW =                  
     GW BOUNDARY FLOW =           5518.47       GW BOUNDARY FLOW =              3.71


                                    OUT                                        OUT
                                    ---                                        ---
   EVAPOTRANSPIRATION =        7.5241D+07     EVAPOTRANSPIRATION =          18493.40
           STREAMFLOW =        7.1330D+07             STREAMFLOW =          10091.15
     GW BOUNDARY FLOW =          52122.72       GW BOUNDARY FLOW =             24.87

   INFLOWS - OUTFLOWS =       -1.3109D+07     INFLOWS - OUTFLOWS =         -28605.72
             --------                                   --------

 TOTAL STORAGE CHANGE =       -1.3102D+07         STORAGE CHANGE =         -28611.13
       --------------                             --------------
         LAND SURFACE =          21549.74           LAND SURFACE =           -680.64
            SOIL ZONE =         587723.66              SOIL ZONE =         -12609.43
     UNSATURATED ZONE =        -332583.33       UNSATURATED ZONE =          -8906.98
       SATURATED ZONE =       -1.3378D+07         SATURATED ZONE =          -6414.08

 OVERALL BUDGET ERROR =          -7590.57           BUDGET ERROR =              5.41


  PERCENT DISCREPANCY =             -0.01    PERCENT DISCREPANCY =              0.02



1
 SUMMARY VOLUMETRIC BUDGET FOR GSFLOW 
 DATE: 10 08 1995              CUMULATIVE TIME STEP:       8
 MODFLOW STRESS PERIOD     62     CURRENT TIME STEP:    1834     ITERATIONS:       5

 -----------------------------------------------------------------------------------

   CUMULATIVE VOLUMES               L**3   RATES FOR THIS TIME STEP           L**3/T
   ------------------                      ------------------------

                                     IN                                         IN
                                     --                                         --
        PRECIPITATION =        1.3351D+08          PRECIPITATION =                  
           STREAMFLOW =                               STREAMFLOW =                  
     GW BOUNDARY FLOW =           5544.74       GW BOUNDARY FLOW =              3.79


                                    OUT                                        OUT
                                    ---                                        ---
   EVAPOTRANSPIRATION =        7.5377D+07     EVAPOTRANSPIRATION =          17062.40
           STREAMFLOW =        7.1400D+07             STREAMFLOW =           9949.70
     GW BOUNDARY FLOW =          52296.73       GW BOUNDARY FLOW =             24.85

   INFLOWS - OUTFLOWS =       -1.3315D+07     INFLOWS - OUTFLOWS =         -27033.17
             --------                                   --------

 TOTAL STORAGE CHANGE =       -1.3307D+07         STORAGE CHANGE =         -27039.56
       --------------                             --------------
         LAND SURFACE =          17598.17           LAND SURFACE =           -617.60
            SOIL ZONE =         495292.45              SOIL ZONE =         -11333.19
     UNSATURATED ZONE =        -392058.15       UNSATURATED ZONE =          -8103.00
       SATURATED ZONE =       -1.3428D+07         SATURATED ZONE =          -6985.77

 OVERALL BUDGET ERROR =          -7552.90           BUDGET ERROR =              6.38


  PERCENT DISCREPANCY =             -0.01    PERCENT DISCREPANCY =              0.02



1
 SUMMARY VOLUMETRIC BUDGET FOR GSFLOW 
 DATE: 10 15 1995              CUMULATIVE TIME STEP:      15
 MODFLOW STRESS PERIOD     62     CURRENT TIME STEP:    1841     ITERATIONS:       5

 -----------------------------------------------------------------------------------

   CUMULATIVE VOLUMES               L**3   RATES FOR THIS TIME STEP           L**3/T
   ------------------                      ------------------------

                                     IN                                         IN
                                     --                                         --
        PRECIPITATION =        1.3351D+08          PRECIPITATION =                  
           STREAMFLOW =                               STREAMFLOW =                  
     GW BOUNDARY FLOW =           5571.57       GW BOUNDARY FLOW =              3.86


                                    OUT                                        OUT
                                    ---                                        ---
   EVAPOTRANSPIRATION =        7.5504D+07     EVAPOTRANSPIRATION =          19803.49
           STREAMFLOW =        7.1468D+07             STREAMFLOW =           9601.69
     GW BOUNDARY FLOW =          52469.81       GW BOUNDARY FLOW =             24.70

   INFLOWS - OUTFLOWS =       -1.3511D+07     INFLOWS - OUTFLOWS =         -29426.01
             --------                                   --------

 TOTAL STORAGE CHANGE =       -1.3503D+07         STORAGE CHANGE =         -29429.39
       --------------                             --------------
         LAND SURFACE =          13563.29           LAND SURFACE =           -673.08
            SOIL ZONE =         410850.73              SOIL ZONE =         -12929.77
     UNSATURATED ZONE =        -446228.13       UNSATURATED ZONE =          -7523.23
       SATURATED ZONE =       -1.3481D+07         SATURATED ZONE =          -8303.32

 OVERALL BUDGET ERROR =          -7532.59           BUDGET ERROR =              3.38


  PERCENT DISCREPANCY =             -0.01    PERCENT DISCREPANCY =              0.01



1
 SUMMARY VOLUMETRIC BUDGET FOR GSFLOW 
 DATE: 10 22 1995              CUMULATIVE TIME STEP:      22
 MODFLOW STRESS PERIOD     62     CURRENT TIME STEP:    1848     ITERATIONS:       9

 -----------------------------------------------------------------------------------

   CUMULATIVE VOLUMES               L**3   RATES FOR THIS TIME STEP           L**3/T
   ------------------                      ------------------------

                                     IN                                         IN
                                     --                                         --
        PRECIPITATION =        1.3351D+08          PRECIPITATION =                  
           STREAMFLOW =                               STREAMFLOW =                  
     GW BOUNDARY FLOW =           5598.92       GW BOUNDARY FLOW =              3.95


                                    OUT                                        OUT
                                    ---                                        ---
   EVAPOTRANSPIRATION =        7.5617D+07     EVAPOTRANSPIRATION =           5157.00
           STREAMFLOW =        7.1535D+07             STREAMFLOW =           9943.40
     GW BOUNDARY FLOW =          52642.45       GW BOUNDARY FLOW =             24.70

   INFLOWS - OUTFLOWS =       -1.3691D+07     INFLOWS - OUTFLOWS =         -15121.16
             --------                                   --------

 TOTAL STORAGE CHANGE =       -1.3683D+07         STORAGE CHANGE =         -15121.55
       --------------                             --------------
         LAND SURFACE =          10116.83           LAND SURFACE =             -7.50
            SOIL ZONE =         338733.86              SOIL ZONE =          -3056.44
     UNSATURATED ZONE =        -495961.52       UNSATURATED ZONE =          -6555.20
       SATURATED ZONE =       -1.3536D+07         SATURATED ZONE =          -5502.40

 OVERALL BUDGET ERROR =          -7523.88           BUDGET ERROR =              0.39


  PERCENT DISCREPANCY =             -0.01    PERCENT DISCREPANCY =              0.00



1
 SUMMARY VOLUMETRIC BUDGET FOR GSFLOW 
 DATE: 10 29 1995              CUMULATIVE TIME STEP:      29
 MODFLOW STRESS PERIOD     62     CURRENT TIME STEP:    1855     ITERATIONS:       5

 -----------------------------------------------------------------------------------

   CUMULATIVE VOLUMES               L**3   RATES FOR THIS TIME STEP           L**3/T
   ------------------                      ------------------------

                                     IN                                         IN
                                     --                                         --
        PRECIPITATION =        1.3351D+08          PRECIPITATION =                  
           STREAMFLOW =                               STREAMFLOW =                  
     GW BOUNDARY FLOW =           5626.88       GW BOUNDARY FLOW =              4.03


                                    OUT                                        OUT
                                    ---                                        ---
   EVAPOTRANSPIRATION =        7.5689D+07     EVAPOTRANSPIRATION =          12321.09
           STREAMFLOW =        7.1603D+07             STREAMFLOW =           9515.58
     GW BOUNDARY FLOW =          52815.24       GW BOUNDARY FLOW =             24.64

   INFLOWS - OUTFLOWS =       -1.3830D+07     INFLOWS - OUTFLOWS =         -21857.27
             --------                                   --------

 TOTAL STORAGE CHANGE =       -1.3823D+07         STORAGE CHANGE =         -21859.45
       --------------                             --------------
         LAND SURFACE =           8965.16           LAND SURFACE =           -342.48
            SOIL ZONE =         295617.60              SOIL ZONE =          -7278.70
     UNSATURATED ZONE =        -542790.11       UNSATURATED ZONE =          -6662.75
       SATURATED ZONE =       -1.3585D+07         SATURATED ZONE =          -7575.53

 OVERALL BUDGET ERROR =          -7512.72           BUDGET ERROR =              2.17


  PERCENT DISCREPANCY =             -0.01    PERCENT DISCREPANCY =              0.01



