1
 SUMMARY VOLUMETRIC BUDGET FOR GSFLOW 
 DATE: 10 07 1990              CUMULATIVE TIME STEP:       7
 MODFLOW STRESS PERIOD      2     CURRENT TIME STEP:       7     ITERATIONS:       7

 -----------------------------------------------------------------------------------

   CUMULATIVE VOLUMES               L**3   RATES FOR THIS TIME STEP           L**3/T
   ------------------                      ------------------------

                                     IN                                         IN
                                     --                                         --
        PRECIPITATION =                            PRECIPITATION =                  
           STREAMFLOW =                               STREAMFLOW =                  
     GW BOUNDARY FLOW =                         GW BOUNDARY FLOW =                  


                                    OUT                                        OUT
                                    ---                                        ---
   EVAPOTRANSPIRATION =         382456.18     EVAPOTRANSPIRATION =          12594.22
           STREAMFLOW =          46354.82             STREAMFLOW =           8178.78
     GW BOUNDARY FLOW =            252.80       GW BOUNDARY FLOW =             36.30

   INFLOWS - OUTFLOWS =        -429063.79     INFLOWS - OUTFLOWS =         -20809.31
             --------                                   --------

 TOTAL STORAGE CHANGE =        -427596.12         STORAGE CHANGE =         -20781.18
       --------------                             --------------
         LAND SURFACE =                             LAND SURFACE =                  
            SOIL ZONE =         -33473.93              SOIL ZONE =          -1008.81
     UNSATURATED ZONE =        -500049.81       UNSATURATED ZONE =         -33985.75
       SATURATED ZONE =         105927.62         SATURATED ZONE =          14213.37

 OVERALL BUDGET ERROR =          -1467.67           BUDGET ERROR =            -28.12


  PERCENT DISCREPANCY =             -0.34    PERCENT DISCREPANCY =             -0.14



1
 SUMMARY VOLUMETRIC BUDGET FOR GSFLOW 
 DATE: 10 14 1990              CUMULATIVE TIME STEP:      14
 MODFLOW STRESS PERIOD      2     CURRENT TIME STEP:      14     ITERATIONS:       8

 -----------------------------------------------------------------------------------

   CUMULATIVE VOLUMES               L**3   RATES FOR THIS TIME STEP           L**3/T
   ------------------                      ------------------------

                                     IN                                         IN
                                     --                                         --
        PRECIPITATION =                            PRECIPITATION =                  
           STREAMFLOW =                               STREAMFLOW =                  
     GW BOUNDARY FLOW =                         GW BOUNDARY FLOW =                  


                                    OUT                                        OUT
                                    ---                                        ---
   EVAPOTRANSPIRATION =         661808.54     EVAPOTRANSPIRATION =          42924.54
           STREAMFLOW =         100567.14             STREAMFLOW =           7164.14
     GW BOUNDARY FLOW =            506.62       GW BOUNDARY FLOW =             36.23

   INFLOWS - OUTFLOWS =        -762882.30     INFLOWS - OUTFLOWS =         -50124.92
             --------                                   --------

 TOTAL STORAGE CHANGE =        -761119.26         STORAGE CHANGE =         -50101.51
       --------------                             --------------
         LAND SURFACE =                             LAND SURFACE =                  
            SOIL ZONE =         -58382.77              SOIL ZONE =          -4449.70
     UNSATURATED ZONE =        -874350.90       UNSATURATED ZONE =         -52671.99
       SATURATED ZONE =         171614.42         SATURATED ZONE =           7020.19

 OVERALL BUDGET ERROR =          -1763.04           BUDGET ERROR =            -23.41


  PERCENT DISCREPANCY =             -0.23    PERCENT DISCREPANCY =             -0.05



1
 SUMMARY VOLUMETRIC BUDGET FOR GSFLOW 
 DATE: 10 21 1990              CUMULATIVE TIME STEP:      21
 MODFLOW STRESS PERIOD      2     CURRENT TIME STEP:      21     ITERATIONS:       6

 -----------------------------------------------------------------------------------

   CUMULATIVE VOLUMES               L**3   RATES FOR THIS TIME STEP           L**3/T
   ------------------                      ------------------------

                                     IN                                         IN
                                     --                                         --
        PRECIPITATION =         188432.87          PRECIPITATION =                  
           STREAMFLOW =                               STREAMFLOW =                  
     GW BOUNDARY FLOW =                         GW BOUNDARY FLOW =                  


                                    OUT                                        OUT
                                    ---                                        ---
   EVAPOTRANSPIRATION =         804124.85     EVAPOTRANSPIRATION =          36527.24
           STREAMFLOW =         163245.66             STREAMFLOW =          10101.43
     GW BOUNDARY FLOW =            760.80       GW BOUNDARY FLOW =             36.37

   INFLOWS - OUTFLOWS =        -779698.44     INFLOWS - OUTFLOWS =         -46665.04
             --------                                   --------

 TOTAL STORAGE CHANGE =        -777879.73         STORAGE CHANGE =         -46669.46
       --------------                             --------------
         LAND SURFACE =          15977.62           LAND SURFACE =         -34861.64
            SOIL ZONE =          57285.91              SOIL ZONE =           -416.79
     UNSATURATED ZONE =       -1086771.33       UNSATURATED ZONE =         -22042.17
       SATURATED ZONE =         235628.06         SATURATED ZONE =          10651.14

 OVERALL BUDGET ERROR =          -1818.71           BUDGET ERROR =              4.41


  PERCENT DISCREPANCY =             -0.19    PERCENT DISCREPANCY =              0.01



1
 SUMMARY VOLUMETRIC BUDGET FOR GSFLOW 
 DATE: 10 28 1990              CUMULATIVE TIME STEP:      28
 MODFLOW STRESS PERIOD      2     CURRENT TIME STEP:      28     ITERATIONS:       7

 -----------------------------------------------------------------------------------

   CUMULATIVE VOLUMES               L**3   RATES FOR THIS TIME STEP           L**3/T
   ------------------                      ------------------------

                                     IN                                         IN
                                     --                                         --
        PRECIPITATION =         188432.87          PRECIPITATION =                  
           STREAMFLOW =                               STREAMFLOW =                  
     GW BOUNDARY FLOW =                         GW BOUNDARY FLOW =                  


                                    OUT                                        OUT
                                    ---                                        ---
   EVAPOTRANSPIRATION =         929255.89     EVAPOTRANSPIRATION =          11275.42
           STREAMFLOW =         224686.86             STREAMFLOW =           8971.47
     GW BOUNDARY FLOW =           1013.99       GW BOUNDARY FLOW =             36.13

   INFLOWS - OUTFLOWS =        -966523.87     INFLOWS - OUTFLOWS =         -20283.01
             --------                                   --------

 TOTAL STORAGE CHANGE =        -964691.61         STORAGE CHANGE =         -20282.81
       --------------                             --------------
         LAND SURFACE =                             LAND SURFACE =                  
            SOIL ZONE =          29063.59              SOIL ZONE =          -3313.24
     UNSATURATED ZONE =       -1271500.06       UNSATURATED ZONE =         -23199.57
       SATURATED ZONE =         277744.85         SATURATED ZONE =           6230.00

 OVERALL BUDGET ERROR =          -1832.25           BUDGET ERROR =             -0.21


  PERCENT DISCREPANCY =             -0.16    PERCENT DISCREPANCY =             -0.00



1
 SUMMARY VOLUMETRIC BUDGET FOR GSFLOW 
 DATE: 11 04 1990              CUMULATIVE TIME STEP:       4
 MODFLOW STRESS PERIOD      3     CURRENT TIME STEP:      35     ITERATIONS:       6

 -----------------------------------------------------------------------------------

   CUMULATIVE VOLUMES               L**3   RATES FOR THIS TIME STEP           L**3/T
   ------------------                      ------------------------

                                     IN                                         IN
                                     --                                         --
        PRECIPITATION =         703113.06          PRECIPITATION =                  
           STREAMFLOW =                               STREAMFLOW =                  
     GW BOUNDARY FLOW =                         GW BOUNDARY FLOW =                  


                                    OUT                                        OUT
                                    ---                                        ---
   EVAPOTRANSPIRATION =         988513.54     EVAPOTRANSPIRATION =          25494.12
           STREAMFLOW =         295116.26             STREAMFLOW =          10509.99
     GW BOUNDARY FLOW =           1267.02       GW BOUNDARY FLOW =             36.13

   INFLOWS - OUTFLOWS =        -581783.77     INFLOWS - OUTFLOWS =         -36040.24
             --------                                   --------

 TOTAL STORAGE CHANGE =        -579973.98         STORAGE CHANGE =         -36044.94
       --------------                             --------------
         LAND SURFACE =          71009.70           LAND SURFACE =         -84159.07
            SOIL ZONE =         427948.82              SOIL ZONE =          58903.74
     UNSATURATED ZONE =       -1417377.23       UNSATURATED ZONE =         -20113.50
       SATURATED ZONE =         338444.73         SATURATED ZONE =           9323.89

 OVERALL BUDGET ERROR =          -1809.79           BUDGET ERROR =              4.70


  PERCENT DISCREPANCY =             -0.14    PERCENT DISCREPANCY =              0.01



1
 SUMMARY VOLUMETRIC BUDGET FOR GSFLOW 
 DATE: 11 11 1990              CUMULATIVE TIME STEP:      11
 MODFLOW STRESS PERIOD      3     CURRENT TIME STEP:      42     ITERATIONS:       6

 -----------------------------------------------------------------------------------

   CUMULATIVE VOLUMES               L**3   RATES FOR THIS TIME STEP           L**3/T
   ------------------                      ------------------------

                                     IN                                         IN
                                     --                                         --
        PRECIPITATION =         703113.06          PRECIPITATION =                  
           STREAMFLOW =                               STREAMFLOW =                  
     GW BOUNDARY FLOW =                         GW BOUNDARY FLOW =                  


                                    OUT                                        OUT
                                    ---                                        ---
   EVAPOTRANSPIRATION =        1061277.81     EVAPOTRANSPIRATION =          12492.09
           STREAMFLOW =         365848.96             STREAMFLOW =           9640.60
     GW BOUNDARY FLOW =           1519.12       GW BOUNDARY FLOW =             35.93

   INFLOWS - OUTFLOWS =        -725532.83     INFLOWS - OUTFLOWS =         -22168.62
             --------                                   --------

 TOTAL STORAGE CHANGE =        -723745.44         STORAGE CHANGE =         -22171.33
       --------------                             --------------
         LAND SURFACE =            295.92           LAND SURFACE =           -859.89
            SOIL ZONE =         445443.26              SOIL ZONE =          -6270.79
     UNSATURATED ZONE =       -1557573.80       UNSATURATED ZONE =         -20021.82
       SATURATED ZONE =         388089.18         SATURATED ZONE =           4981.17

 OVERALL BUDGET ERROR =          -1787.39           BUDGET ERROR =              2.71


  PERCENT DISCREPANCY =             -0.13    PERCENT DISCREPANCY =              0.01



1
 SUMMARY VOLUMETRIC BUDGET FOR GSFLOW 
 DATE: 11 18 1990              CUMULATIVE TIME STEP:      18
 MODFLOW STRESS PERIOD      3     CURRENT TIME STEP:      49     ITERATIONS:       6

 -----------------------------------------------------------------------------------

   CUMULATIVE VOLUMES               L**3   RATES FOR THIS TIME STEP           L**3/T
   ------------------                      ------------------------

                                     IN                                         IN
                                     --                                         --
        PRECIPITATION =         747883.35          PRECIPITATION =                  
           STREAMFLOW =                               STREAMFLOW =                  
     GW BOUNDARY FLOW =                         GW BOUNDARY FLOW =                  


                                    OUT                                        OUT
                                    ---                                        ---
   EVAPOTRANSPIRATION =        1130209.33     EVAPOTRANSPIRATION =           5354.64
           STREAMFLOW =         437410.74             STREAMFLOW =          10654.05
     GW BOUNDARY FLOW =           1770.43       GW BOUNDARY FLOW =             35.88

   INFLOWS - OUTFLOWS =        -821507.15     INFLOWS - OUTFLOWS =         -16044.58
             --------                                   --------

 TOTAL STORAGE CHANGE =        -819736.64         STORAGE CHANGE =         -16048.29
       --------------                             --------------
         LAND SURFACE =          10077.61           LAND SURFACE =          -4199.79
            SOIL ZONE =         428604.25              SOIL ZONE =           -533.62
     UNSATURATED ZONE =       -1691428.99       UNSATURATED ZONE =         -18676.04
       SATURATED ZONE =         433010.49         SATURATED ZONE =           7361.16

 OVERALL BUDGET ERROR =          -1770.51           BUDGET ERROR =              3.71


  PERCENT DISCREPANCY =             -0.11    PERCENT DISCREPANCY =              0.02



1
 SUMMARY VOLUMETRIC BUDGET FOR GSFLOW 
 DATE: 11 25 1990              CUMULATIVE TIME STEP:      25
 MODFLOW STRESS PERIOD      3     CURRENT TIME STEP:      56     ITERATIONS:       6

 -----------------------------------------------------------------------------------

   CUMULATIVE VOLUMES               L**3   RATES FOR THIS TIME STEP           L**3/T
   ------------------                      ------------------------

                                     IN                                         IN
                                     --                                         --
        PRECIPITATION =        1009043.38          PRECIPITATION =         186542.88
           STREAMFLOW =                               STREAMFLOW =                  
     GW BOUNDARY FLOW =                         GW BOUNDARY FLOW =                  


                                    OUT                                        OUT
                                    ---                                        ---
   EVAPOTRANSPIRATION =        1190027.34     EVAPOTRANSPIRATION =           3828.16
           STREAMFLOW =         513093.91             STREAMFLOW =          10736.57
     GW BOUNDARY FLOW =           2021.36       GW BOUNDARY FLOW =             35.79

   INFLOWS - OUTFLOWS =        -696099.23     INFLOWS - OUTFLOWS =         171942.36
             --------                                   --------

 TOTAL STORAGE CHANGE =        -694348.38         STORAGE CHANGE =         171939.95
       --------------                             --------------
         LAND SURFACE =          92124.67           LAND SURFACE =          75233.82
            SOIL ZONE =         550375.53              SOIL ZONE =         108357.03
     UNSATURATED ZONE =       -1819443.46       UNSATURATED ZONE =         -17987.24
       SATURATED ZONE =         482594.88         SATURATED ZONE =           6336.34

 OVERALL BUDGET ERROR =          -1750.85           BUDGET ERROR =              2.41


  PERCENT DISCREPANCY =             -0.10    PERCENT DISCREPANCY =              0.00



1
 SUMMARY VOLUMETRIC BUDGET FOR GSFLOW 
 DATE: 12 02 1990              CUMULATIVE TIME STEP:       2
 MODFLOW STRESS PERIOD      4     CURRENT TIME STEP:      63     ITERATIONS:       6

 -----------------------------------------------------------------------------------

   CUMULATIVE VOLUMES               L**3   RATES FOR THIS TIME STEP           L**3/T
   ------------------                      ------------------------

                                     IN                                         IN
                                     --                                         --
        PRECIPITATION =        1449284.55          PRECIPITATION =                  
           STREAMFLOW =                               STREAMFLOW =                  
     GW BOUNDARY FLOW =                         GW BOUNDARY FLOW =                  


                                    OUT                                        OUT
                                    ---                                        ---
   EVAPOTRANSPIRATION =        1197595.77     EVAPOTRANSPIRATION =            374.47
           STREAMFLOW =         589973.32             STREAMFLOW =          11033.06
     GW BOUNDARY FLOW =           2271.84       GW BOUNDARY FLOW =             35.77

   INFLOWS - OUTFLOWS =        -340556.37     INFLOWS - OUTFLOWS =         -11443.30
             --------                                   --------

 TOTAL STORAGE CHANGE =        -338821.04         STORAGE CHANGE =         -11445.19
       --------------                             --------------
         LAND SURFACE =         493448.43           LAND SURFACE =           -453.37
            SOIL ZONE =         582631.53              SOIL ZONE =            209.45
     UNSATURATED ZONE =       -1942658.30       UNSATURATED ZONE =         -17309.51
       SATURATED ZONE =         527757.30         SATURATED ZONE =           6108.23

 OVERALL BUDGET ERROR =          -1735.33           BUDGET ERROR =              1.89


  PERCENT DISCREPANCY =             -0.10    PERCENT DISCREPANCY =              0.02



1
 SUMMARY VOLUMETRIC BUDGET FOR GSFLOW 
 DATE: 12 09 1990              CUMULATIVE TIME STEP:       9
 MODFLOW STRESS PERIOD      4     CURRENT TIME STEP:      70     ITERATIONS:       6

 -----------------------------------------------------------------------------------

   CUMULATIVE VOLUMES               L**3   RATES FOR THIS TIME STEP           L**3/T
   ------------------                      ------------------------

                                     IN                                         IN
                                     --                                         --
        PRECIPITATION =        1449284.55          PRECIPITATION =                  
           STREAMFLOW =                               STREAMFLOW =                  
     GW BOUNDARY FLOW =                         GW BOUNDARY FLOW =                  


                                    OUT                                        OUT
                                    ---                                        ---
   EVAPOTRANSPIRATION =        1274508.56     EVAPOTRANSPIRATION =          13605.44
           STREAMFLOW =         666740.40             STREAMFLOW =          10692.41
     GW BOUNDARY FLOW =           2521.77       GW BOUNDARY FLOW =             35.64

   INFLOWS - OUTFLOWS =        -494486.17     INFLOWS - OUTFLOWS =         -24333.49
             --------                                   --------

 TOTAL STORAGE CHANGE =        -492763.63         STORAGE CHANGE =         -24334.13
       --------------                             --------------
         LAND SURFACE =          66382.66           LAND SURFACE =         -46525.52
            SOIL ZONE =         937718.43              SOIL ZONE =          34919.10
     UNSATURATED ZONE =       -2060812.44       UNSATURATED ZONE =         -16531.43
       SATURATED ZONE =         563947.72         SATURATED ZONE =           3803.73

 OVERALL BUDGET ERROR =          -1722.54           BUDGET ERROR =              0.64


  PERCENT DISCREPANCY =             -0.09    PERCENT DISCREPANCY =              0.00



1
 SUMMARY VOLUMETRIC BUDGET FOR GSFLOW 
 DATE: 12 16 1990              CUMULATIVE TIME STEP:      16
 MODFLOW STRESS PERIOD      4     CURRENT TIME STEP:      77     ITERATIONS:       6

 -----------------------------------------------------------------------------------

   CUMULATIVE VOLUMES               L**3   RATES FOR THIS TIME STEP           L**3/T
   ------------------                      ------------------------

                                     IN                                         IN
                                     --                                         --
        PRECIPITATION =        1804962.84          PRECIPITATION =                  
           STREAMFLOW =                               STREAMFLOW =                  
     GW BOUNDARY FLOW =                         GW BOUNDARY FLOW =                  


                                    OUT                                        OUT
                                    ---                                        ---
   EVAPOTRANSPIRATION =        1302838.69     EVAPOTRANSPIRATION =                  
           STREAMFLOW =         745107.66             STREAMFLOW =          11387.07
     GW BOUNDARY FLOW =           2771.14       GW BOUNDARY FLOW =             35.60

   INFLOWS - OUTFLOWS =        -245754.65     INFLOWS - OUTFLOWS =         -11422.68
             --------                                   --------

 TOTAL STORAGE CHANGE =        -244040.01         STORAGE CHANGE =         -11423.26
       --------------                             --------------
         LAND SURFACE =         256077.35           LAND SURFACE =                  
            SOIL ZONE =        1079682.47              SOIL ZONE =            149.00
     UNSATURATED ZONE =       -2174485.45       UNSATURATED ZONE =         -15981.74
       SATURATED ZONE =         594685.62         SATURATED ZONE =           4409.49

 OVERALL BUDGET ERROR =          -1714.64           BUDGET ERROR =              0.58


  PERCENT DISCREPANCY =             -0.08    PERCENT DISCREPANCY =              0.01



1
 SUMMARY VOLUMETRIC BUDGET FOR GSFLOW 
 DATE: 12 23 1990              CUMULATIVE TIME STEP:      23
 MODFLOW STRESS PERIOD      4     CURRENT TIME STEP:      84     ITERATIONS:       6

 -----------------------------------------------------------------------------------

   CUMULATIVE VOLUMES               L**3   RATES FOR THIS TIME STEP           L**3/T
   ------------------                      ------------------------

                                     IN                                         IN
                                     --                                         --
        PRECIPITATION =        2276236.55          PRECIPITATION =                  
           STREAMFLOW =                               STREAMFLOW =                  
     GW BOUNDARY FLOW =              0.08       GW BOUNDARY FLOW =              0.04


                                    OUT                                        OUT
                                    ---                                        ---
   EVAPOTRANSPIRATION =        1304213.30     EVAPOTRANSPIRATION =                  
           STREAMFLOW =         825246.71             STREAMFLOW =          11488.03
     GW BOUNDARY FLOW =           3020.15       GW BOUNDARY FLOW =             35.57

   INFLOWS - OUTFLOWS =         143756.46     INFLOWS - OUTFLOWS =         -11523.56
             --------                                   --------

 TOTAL STORAGE CHANGE =         145470.32         STORAGE CHANGE =         -11523.29
       --------------                             --------------
         LAND SURFACE =         725980.65           LAND SURFACE =                  
            SOIL ZONE =        1080769.28              SOIL ZONE =            158.90
     UNSATURATED ZONE =       -2283919.89       UNSATURATED ZONE =         -15386.01
       SATURATED ZONE =         622640.29         SATURATED ZONE =           3703.83

 OVERALL BUDGET ERROR =          -1713.86           BUDGET ERROR =             -0.27


  PERCENT DISCREPANCY =             -0.08    PERCENT DISCREPANCY =             -0.00



1
 SUMMARY VOLUMETRIC BUDGET FOR GSFLOW 
 DATE: 12 30 1990              CUMULATIVE TIME STEP:      30
 MODFLOW STRESS PERIOD      4     CURRENT TIME STEP:      91     ITERATIONS:       5

 -----------------------------------------------------------------------------------

   CUMULATIVE VOLUMES               L**3   RATES FOR THIS TIME STEP           L**3/T
   ------------------                      ------------------------

                                     IN                                         IN
                                     --                                         --
        PRECIPITATION =        2276236.55          PRECIPITATION =                  
           STREAMFLOW =                               STREAMFLOW =                  
     GW BOUNDARY FLOW =              0.77       GW BOUNDARY FLOW =              0.14


                                    OUT                                        OUT
                                    ---                                        ---
   EVAPOTRANSPIRATION =        1304965.94     EVAPOTRANSPIRATION =                  
           STREAMFLOW =         906061.51             STREAMFLOW =          11588.19
     GW BOUNDARY FLOW =           3269.25       GW BOUNDARY FLOW =             35.60

   INFLOWS - OUTFLOWS =          61940.62     INFLOWS - OUTFLOWS =         -11623.65
             --------                                   --------

 TOTAL STORAGE CHANGE =          63664.42         STORAGE CHANGE =         -11621.28
       --------------                             --------------
         LAND SURFACE =         725228.16           LAND SURFACE =                  
            SOIL ZONE =        1081926.09              SOIL ZONE =            170.49
     UNSATURATED ZONE =       -2389471.23       UNSATURATED ZONE =         -14848.61
       SATURATED ZONE =         645981.39         SATURATED ZONE =           3056.85

 OVERALL BUDGET ERROR =          -1723.80           BUDGET ERROR =             -2.37


  PERCENT DISCREPANCY =             -0.08    PERCENT DISCREPANCY =             -0.02



1
 SUMMARY VOLUMETRIC BUDGET FOR GSFLOW 
 DATE: 01 06 1991              CUMULATIVE TIME STEP:       6
 MODFLOW STRESS PERIOD      5     CURRENT TIME STEP:      98     ITERATIONS:       5

 -----------------------------------------------------------------------------------

   CUMULATIVE VOLUMES               L**3   RATES FOR THIS TIME STEP           L**3/T
   ------------------                      ------------------------

                                     IN                                         IN
                                     --                                         --
        PRECIPITATION =        2276236.55          PRECIPITATION =                  
           STREAMFLOW =                               STREAMFLOW =                  
     GW BOUNDARY FLOW =              2.10       GW BOUNDARY FLOW =              0.22


                                    OUT                                        OUT
                                    ---                                        ---
   EVAPOTRANSPIRATION =        1328234.49     EVAPOTRANSPIRATION =           2582.15
           STREAMFLOW =         987522.86             STREAMFLOW =          11669.97
     GW BOUNDARY FLOW =           3519.10       GW BOUNDARY FLOW =             35.75

   INFLOWS - OUTFLOWS =         -43037.81     INFLOWS - OUTFLOWS =         -14287.64
             --------                                   --------

 TOTAL STORAGE CHANGE =         -41290.88         STORAGE CHANGE =         -14283.91
       --------------                             --------------
         LAND SURFACE =         620283.29           LAND SURFACE =          -6112.33
            SOIL ZONE =        1164866.66              SOIL ZONE =           3712.37
     UNSATURATED ZONE =       -2491076.63       UNSATURATED ZONE =         -14277.08
       SATURATED ZONE =         664635.80         SATURATED ZONE =           2393.13

 OVERALL BUDGET ERROR =          -1746.93           BUDGET ERROR =             -3.73


  PERCENT DISCREPANCY =             -0.08    PERCENT DISCREPANCY =             -0.03



1
 SUMMARY VOLUMETRIC BUDGET FOR GSFLOW 
 DATE: 01 13 1991              CUMULATIVE TIME STEP:      13
 MODFLOW STRESS PERIOD      5     CURRENT TIME STEP:     105     ITERATIONS:       6

 -----------------------------------------------------------------------------------

   CUMULATIVE VOLUMES               L**3   RATES FOR THIS TIME STEP           L**3/T
   ------------------                      ------------------------

                                     IN                                         IN
                                     --                                         --
        PRECIPITATION =        2596386.94          PRECIPITATION =          10327.43
           STREAMFLOW =                               STREAMFLOW =                  
     GW BOUNDARY FLOW =              4.02       GW BOUNDARY FLOW =              0.31


                                    OUT                                        OUT
                                    ---                                        ---
   EVAPOTRANSPIRATION =        1388069.46     EVAPOTRANSPIRATION =          16664.20
           STREAMFLOW =        1069124.90             STREAMFLOW =          11515.60
     GW BOUNDARY FLOW =           3769.31       GW BOUNDARY FLOW =             35.72

   INFLOWS - OUTFLOWS =         135427.29     INFLOWS - OUTFLOWS =         -17887.78
             --------                                   --------

 TOTAL STORAGE CHANGE =         137205.81         STORAGE CHANGE =         -17885.09
       --------------                             --------------
         LAND SURFACE =         586364.85           LAND SURFACE =        -135127.18
            SOIL ZONE =        1461909.64              SOIL ZONE =         130012.17
     UNSATURATED ZONE =       -2588651.84       UNSATURATED ZONE =         -13746.67
       SATURATED ZONE =         677583.16         SATURATED ZONE =            976.59

 OVERALL BUDGET ERROR =          -1778.52           BUDGET ERROR =             -2.69


  PERCENT DISCREPANCY =             -0.07    PERCENT DISCREPANCY =             -0.01



1
 SUMMARY VOLUMETRIC BUDGET FOR GSFLOW 
 DATE: 01 20 1991              CUMULATIVE TIME STEP:      20
 MODFLOW STRESS PERIOD      5     CURRENT TIME STEP:     112     ITERATIONS:       5

 -----------------------------------------------------------------------------------

   CUMULATIVE VOLUMES               L**3   RATES FOR THIS TIME STEP           L**3/T
   ------------------                      ------------------------

                                     IN                                         IN
                                     --                                         --
        PRECIPITATION =        2596386.94          PRECIPITATION =                  
           STREAMFLOW =                               STREAMFLOW =                  
     GW BOUNDARY FLOW =              6.55       GW BOUNDARY FLOW =              0.40


                                    OUT                                        OUT
                                    ---                                        ---
   EVAPOTRANSPIRATION =        1456315.63     EVAPOTRANSPIRATION =           1812.15
           STREAMFLOW =        1151199.83             STREAMFLOW =          11770.87
     GW BOUNDARY FLOW =           4019.52       GW BOUNDARY FLOW =             35.75

   INFLOWS - OUTFLOWS =         -15141.48     INFLOWS - OUTFLOWS =         -13618.37
             --------                                   --------

 TOTAL STORAGE CHANGE =         -13318.49         STORAGE CHANGE =         -13610.80
       --------------                             --------------
         LAND SURFACE =         422210.58           LAND SURFACE =           -295.67
            SOIL ZONE =        1560301.11              SOIL ZONE =          -1285.21
     UNSATURATED ZONE =       -2682312.06       UNSATURATED ZONE =         -13156.12
       SATURATED ZONE =         686481.88         SATURATED ZONE =           1126.20

 OVERALL BUDGET ERROR =          -1822.99           BUDGET ERROR =             -7.57


  PERCENT DISCREPANCY =             -0.07    PERCENT DISCREPANCY =             -0.06



1
 SUMMARY VOLUMETRIC BUDGET FOR GSFLOW 
 DATE: 01 27 1991              CUMULATIVE TIME STEP:      27
 MODFLOW STRESS PERIOD      5     CURRENT TIME STEP:     119     ITERATIONS:       5

 -----------------------------------------------------------------------------------

   CUMULATIVE VOLUMES               L**3   RATES FOR THIS TIME STEP           L**3/T
   ------------------                      ------------------------

                                     IN                                         IN
                                     --                                         --
        PRECIPITATION =        2596386.94          PRECIPITATION =                  
           STREAMFLOW =                               STREAMFLOW =                  
     GW BOUNDARY FLOW =              9.66       GW BOUNDARY FLOW =              0.48


                                    OUT                                        OUT
                                    ---                                        ---
   EVAPOTRANSPIRATION =        1477314.26     EVAPOTRANSPIRATION =           1217.92
           STREAMFLOW =        1233770.14             STREAMFLOW =          11831.30
     GW BOUNDARY FLOW =           4269.71       GW BOUNDARY FLOW =             35.74

   INFLOWS - OUTFLOWS =        -118957.51     INFLOWS - OUTFLOWS =         -13084.48
             --------                                   --------

 TOTAL STORAGE CHANGE =        -117075.03         STORAGE CHANGE =         -13075.48
       --------------                             --------------
         LAND SURFACE =         394226.38           LAND SURFACE =           -109.80
            SOIL ZONE =        1569287.41              SOIL ZONE =           -901.74
     UNSATURATED ZONE =       -2772437.13       UNSATURATED ZONE =         -12654.94
       SATURATED ZONE =         691848.30         SATURATED ZONE =            591.00

 OVERALL BUDGET ERROR =          -1882.48           BUDGET ERROR =             -9.00


  PERCENT DISCREPANCY =             -0.07    PERCENT DISCREPANCY =             -0.07



1
 SUMMARY VOLUMETRIC BUDGET FOR GSFLOW 
 DATE: 02 03 1991              CUMULATIVE TIME STEP:       3
 MODFLOW STRESS PERIOD      6     CURRENT TIME STEP:     126     ITERATIONS:       6

 -----------------------------------------------------------------------------------

   CUMULATIVE VOLUMES               L**3   RATES FOR THIS TIME STEP           L**3/T
   ------------------                      ------------------------

                                     IN                                         IN
                                     --                                         --
        PRECIPITATION =        3228422.31          PRECIPITATION =          30459.53
           STREAMFLOW =                               STREAMFLOW =                  
     GW BOUNDARY FLOW =             13.32       GW BOUNDARY FLOW =              0.55


                                    OUT                                        OUT
                                    ---                                        ---
   EVAPOTRANSPIRATION =        1575766.42     EVAPOTRANSPIRATION =          20018.04
           STREAMFLOW =        1316539.94             STREAMFLOW =          11853.80
     GW BOUNDARY FLOW =           4519.83       GW BOUNDARY FLOW =             35.73

   INFLOWS - OUTFLOWS =         331609.44     INFLOWS - OUTFLOWS =          -1447.48
             --------                                   --------

 TOTAL STORAGE CHANGE =         333550.02         STORAGE CHANGE =          -1442.90
       --------------                             --------------
         LAND SURFACE =         184727.70           LAND SURFACE =         -28670.24
            SOIL ZONE =        2316527.20              SOIL ZONE =          39668.07
     UNSATURATED ZONE =       -2859438.96       UNSATURATED ZONE =         -12238.52
       SATURATED ZONE =         691734.09         SATURATED ZONE =           -202.21

 OVERALL BUDGET ERROR =          -1940.58           BUDGET ERROR =             -4.58


  PERCENT DISCREPANCY =             -0.06    PERCENT DISCREPANCY =             -0.01



1
 SUMMARY VOLUMETRIC BUDGET FOR GSFLOW 
 DATE: 02 10 1991              CUMULATIVE TIME STEP:      10
 MODFLOW STRESS PERIOD      6     CURRENT TIME STEP:     133     ITERATIONS:       5

 -----------------------------------------------------------------------------------

   CUMULATIVE VOLUMES               L**3   RATES FOR THIS TIME STEP           L**3/T
   ------------------                      ------------------------

                                     IN                                         IN
                                     --                                         --
        PRECIPITATION =        3510173.01          PRECIPITATION =                  
           STREAMFLOW =                               STREAMFLOW =                  
     GW BOUNDARY FLOW =             17.50       GW BOUNDARY FLOW =              0.63


                                    OUT                                        OUT
                                    ---                                        ---
   EVAPOTRANSPIRATION =        1741310.75     EVAPOTRANSPIRATION =          25322.63
           STREAMFLOW =        1398471.23             STREAMFLOW =          11838.55
     GW BOUNDARY FLOW =           4769.80       GW BOUNDARY FLOW =             35.71

   INFLOWS - OUTFLOWS =         365638.73     INFLOWS - OUTFLOWS =         -37196.26
             --------                                   --------

 TOTAL STORAGE CHANGE =         367608.67         STORAGE CHANGE =         -37184.43
       --------------                             --------------
         LAND SURFACE =          90050.80           LAND SURFACE =         -12330.62
            SOIL ZONE =        2529902.40              SOIL ZONE =         -12529.90
     UNSATURATED ZONE =       -2942847.65       UNSATURATED ZONE =         -11783.94
       SATURATED ZONE =         690503.12         SATURATED ZONE =           -539.98

 OVERALL BUDGET ERROR =          -1969.94           BUDGET ERROR =            -11.83


  PERCENT DISCREPANCY =             -0.06    PERCENT DISCREPANCY =             -0.03



1
 SUMMARY VOLUMETRIC BUDGET FOR GSFLOW 
 DATE: 02 17 1991              CUMULATIVE TIME STEP:      17
 MODFLOW STRESS PERIOD      6     CURRENT TIME STEP:     140     ITERATIONS:       5

 -----------------------------------------------------------------------------------

   CUMULATIVE VOLUMES               L**3   RATES FOR THIS TIME STEP           L**3/T
   ------------------                      ------------------------

                                     IN                                         IN
                                     --                                         --
        PRECIPITATION =        3510173.01          PRECIPITATION =                  
           STREAMFLOW =                               STREAMFLOW =                  
     GW BOUNDARY FLOW =             22.17       GW BOUNDARY FLOW =              0.70


                                    OUT                                        OUT
                                    ---                                        ---
   EVAPOTRANSPIRATION =        1981557.15     EVAPOTRANSPIRATION =          23106.93
           STREAMFLOW =        1481657.77             STREAMFLOW =          11909.58
     GW BOUNDARY FLOW =           5019.69       GW BOUNDARY FLOW =             35.67

   INFLOWS - OUTFLOWS =          41960.57     INFLOWS - OUTFLOWS =         -35051.48
             --------                                   --------

 TOTAL STORAGE CHANGE =          44020.03         STORAGE CHANGE =         -35037.99
       --------------                             --------------
         LAND SURFACE =          18163.73           LAND SURFACE =          -1654.25
            SOIL ZONE =        2364093.41              SOIL ZONE =         -21299.73
     UNSATURATED ZONE =       -3022863.99       UNSATURATED ZONE =         -11079.66
       SATURATED ZONE =         684626.86         SATURATED ZONE =          -1004.35

 OVERALL BUDGET ERROR =          -2059.46           BUDGET ERROR =            -13.49


  PERCENT DISCREPANCY =             -0.06    PERCENT DISCREPANCY =             -0.04



1
 SUMMARY VOLUMETRIC BUDGET FOR GSFLOW 
 DATE: 02 24 1991              CUMULATIVE TIME STEP:      24
 MODFLOW STRESS PERIOD      6     CURRENT TIME STEP:     147     ITERATIONS:       5

 -----------------------------------------------------------------------------------

   CUMULATIVE VOLUMES               L**3   RATES FOR THIS TIME STEP           L**3/T
   ------------------                      ------------------------

                                     IN                                         IN
                                     --                                         --
        PRECIPITATION =        3510173.01          PRECIPITATION =                  
           STREAMFLOW =                               STREAMFLOW =                  
     GW BOUNDARY FLOW =             27.32       GW BOUNDARY FLOW =              0.76


                                    OUT                                        OUT
                                    ---                                        ---
   EVAPOTRANSPIRATION =        2196942.58     EVAPOTRANSPIRATION =          21931.37
           STREAMFLOW =        1563839.65             STREAMFLOW =          11904.17
     GW BOUNDARY FLOW =           5268.69       GW BOUNDARY FLOW =             35.50

   INFLOWS - OUTFLOWS =        -255850.59     INFLOWS - OUTFLOWS =         -33870.28
             --------                                   --------

 TOTAL STORAGE CHANGE =        -253743.63         STORAGE CHANGE =         -33855.03
       --------------                             --------------
         LAND SURFACE =           6686.42           LAND SURFACE =           -239.07
            SOIL ZONE =        2161556.95              SOIL ZONE =         -21479.12
     UNSATURATED ZONE =       -3098767.09       UNSATURATED ZONE =         -10673.00
       SATURATED ZONE =         676780.10         SATURATED ZONE =          -1463.85

 OVERALL BUDGET ERROR =          -2106.96           BUDGET ERROR =            -15.25


  PERCENT DISCREPANCY =             -0.06    PERCENT DISCREPANCY =             -0.05



1
 SUMMARY VOLUMETRIC BUDGET FOR GSFLOW 
 DATE: 03 03 1991              CUMULATIVE TIME STEP:       3
 MODFLOW STRESS PERIOD      7     CURRENT TIME STEP:     154     ITERATIONS:       5

 -----------------------------------------------------------------------------------

   CUMULATIVE VOLUMES               L**3   RATES FOR THIS TIME STEP           L**3/T
   ------------------                      ------------------------

                                     IN                                         IN
                                     --                                         --
        PRECIPITATION =        6220189.63          PRECIPITATION =        1243187.24
           STREAMFLOW =                               STREAMFLOW =                  
     GW BOUNDARY FLOW =             32.92       GW BOUNDARY FLOW =              0.83


                                    OUT                                        OUT
                                    ---                                        ---
   EVAPOTRANSPIRATION =        2349358.51     EVAPOTRANSPIRATION =           7996.21
           STREAMFLOW =        1646951.58             STREAMFLOW =          11817.22
     GW BOUNDARY FLOW =           5516.52       GW BOUNDARY FLOW =             35.32

   INFLOWS - OUTFLOWS =        2218395.94     INFLOWS - OUTFLOWS =        1223339.32
             --------                                   --------

 TOTAL STORAGE CHANGE =        2220605.53         STORAGE CHANGE =        1223355.78
       --------------                             --------------
         LAND SURFACE =        2505892.53           LAND SURFACE =        1046737.06
            SOIL ZONE =        2223258.53              SOIL ZONE =         189218.34
     UNSATURATED ZONE =       -3171843.08       UNSATURATED ZONE =         -10269.91
       SATURATED ZONE =         663297.55         SATURATED ZONE =          -2329.70

 OVERALL BUDGET ERROR =          -2209.59           BUDGET ERROR =            -16.46


  PERCENT DISCREPANCY =             -0.04    PERCENT DISCREPANCY =             -0.00



1
 SUMMARY VOLUMETRIC BUDGET FOR GSFLOW 
 DATE: 03 10 1991              CUMULATIVE TIME STEP:      10
 MODFLOW STRESS PERIOD      7     CURRENT TIME STEP:     161     ITERATIONS:       6

 -----------------------------------------------------------------------------------

   CUMULATIVE VOLUMES               L**3   RATES FOR THIS TIME STEP           L**3/T
   ------------------                      ------------------------

                                     IN                                         IN
                                     --                                         --
        PRECIPITATION =        8746030.42          PRECIPITATION =          32888.55
           STREAMFLOW =                               STREAMFLOW =                  
     GW BOUNDARY FLOW =             38.97       GW BOUNDARY FLOW =              0.89


                                    OUT                                        OUT
                                    ---                                        ---
   EVAPOTRANSPIRATION =        2402073.45     EVAPOTRANSPIRATION =           6903.57
           STREAMFLOW =        1740062.33             STREAMFLOW =          12418.43
     GW BOUNDARY FLOW =           5763.62       GW BOUNDARY FLOW =             35.23

   INFLOWS - OUTFLOWS =        4598169.98     INFLOWS - OUTFLOWS =          13532.21
             --------                                   --------

 TOTAL STORAGE CHANGE =        4600467.34         STORAGE CHANGE =          13540.37
       --------------                             --------------
         LAND SURFACE =        3056677.03           LAND SURFACE =          -5526.40
            SOIL ZONE =        4106038.03              SOIL ZONE =          26165.79
     UNSATURATED ZONE =       -3210905.95       UNSATURATED ZONE =          -4723.34
       SATURATED ZONE =         648658.23         SATURATED ZONE =          -2375.69

 OVERALL BUDGET ERROR =          -2297.35           BUDGET ERROR =             -8.17


  PERCENT DISCREPANCY =             -0.03    PERCENT DISCREPANCY =             -0.02



1
 SUMMARY VOLUMETRIC BUDGET FOR GSFLOW 
 DATE: 03 17 1991              CUMULATIVE TIME STEP:      17
 MODFLOW STRESS PERIOD      7     CURRENT TIME STEP:     168     ITERATIONS:       5

 -----------------------------------------------------------------------------------

   CUMULATIVE VOLUMES               L**3   RATES FOR THIS TIME STEP           L**3/T
   ------------------                      ------------------------

                                     IN                                         IN
                                     --                                         --
        PRECIPITATION =        9897129.71          PRECIPITATION =         157865.04
           STREAMFLOW =                               STREAMFLOW =                  
     GW BOUNDARY FLOW =             45.43       GW BOUNDARY FLOW =              0.95


                                    OUT                                        OUT
                                    ---                                        ---
   EVAPOTRANSPIRATION =        2423503.20     EVAPOTRANSPIRATION =           6384.89
           STREAMFLOW =        1828124.12             STREAMFLOW =          12611.57
     GW BOUNDARY FLOW =           6009.76       GW BOUNDARY FLOW =             35.10

   INFLOWS - OUTFLOWS =        5639538.06     INFLOWS - OUTFLOWS =         138834.43
             --------                                   --------

 TOTAL STORAGE CHANGE =        5641945.59         STORAGE CHANGE =         138853.59
       --------------                             --------------
         LAND SURFACE =        4188230.79           LAND SURFACE =         152136.56
            SOIL ZONE =        4065970.27              SOIL ZONE =          -5563.96
     UNSATURATED ZONE =       -3244305.99       UNSATURATED ZONE =          -5018.63
       SATURATED ZONE =         632050.52         SATURATED ZONE =          -2700.38

 OVERALL BUDGET ERROR =          -2407.53           BUDGET ERROR =            -19.16


  PERCENT DISCREPANCY =             -0.02    PERCENT DISCREPANCY =             -0.01



1
 SUMMARY VOLUMETRIC BUDGET FOR GSFLOW 
 DATE: 03 24 1991              CUMULATIVE TIME STEP:      24
 MODFLOW STRESS PERIOD      7     CURRENT TIME STEP:     175     ITERATIONS:       5

 -----------------------------------------------------------------------------------

   CUMULATIVE VOLUMES               L**3   RATES FOR THIS TIME STEP           L**3/T
   ------------------                      ------------------------

                                     IN                                         IN
                                     --                                         --
        PRECIPITATION =        1.1673D+07          PRECIPITATION =        1230031.83
           STREAMFLOW =                               STREAMFLOW =                  
     GW BOUNDARY FLOW =             52.31       GW BOUNDARY FLOW =              1.01


                                    OUT                                        OUT
                                    ---                                        ---
   EVAPOTRANSPIRATION =        2454418.90     EVAPOTRANSPIRATION =           3635.96
           STREAMFLOW =        1917590.74             STREAMFLOW =          12899.50
     GW BOUNDARY FLOW =           6255.00       GW BOUNDARY FLOW =             34.98

   INFLOWS - OUTFLOWS =        7294899.17     INFLOWS - OUTFLOWS =        1213462.40
             --------                                   --------

 TOTAL STORAGE CHANGE =        7297432.56         STORAGE CHANGE =        1213482.07
       --------------                             --------------
         LAND SURFACE =        5933783.02           LAND SURFACE =        1227482.51
            SOIL ZONE =        4030363.33              SOIL ZONE =          -6058.69
     UNSATURATED ZONE =       -3279486.12       UNSATURATED ZONE =          -5089.60
       SATURATED ZONE =         612772.33         SATURATED ZONE =          -2852.16

 OVERALL BUDGET ERROR =          -2533.39           BUDGET ERROR =            -19.66


  PERCENT DISCREPANCY =             -0.02    PERCENT DISCREPANCY =             -0.00



1
 SUMMARY VOLUMETRIC BUDGET FOR GSFLOW 
 DATE: 03 31 1991              CUMULATIVE TIME STEP:      31
 MODFLOW STRESS PERIOD      7     CURRENT TIME STEP:     182     ITERATIONS:       6

 -----------------------------------------------------------------------------------

   CUMULATIVE VOLUMES               L**3   RATES FOR THIS TIME STEP           L**3/T
   ------------------                      ------------------------

                                     IN                                         IN
                                     --                                         --
        PRECIPITATION =        1.2495D+07          PRECIPITATION =                  
           STREAMFLOW =                               STREAMFLOW =                  
     GW BOUNDARY FLOW =             59.57       GW BOUNDARY FLOW =              1.06


                                    OUT                                        OUT
                                    ---                                        ---
   EVAPOTRANSPIRATION =        2561002.36     EVAPOTRANSPIRATION =          43707.25
           STREAMFLOW =        2009656.57             STREAMFLOW =          13560.25
     GW BOUNDARY FLOW =           6499.49       GW BOUNDARY FLOW =             34.89

   INFLOWS - OUTFLOWS =        7918226.43     INFLOWS - OUTFLOWS =         -57301.33
             --------                                   --------

 TOTAL STORAGE CHANGE =        7920892.22         STORAGE CHANGE =         -57291.32
       --------------                             --------------
         LAND SURFACE =        6553217.20           LAND SURFACE =        -112248.23
            SOIL ZONE =        4089621.34              SOIL ZONE =          62573.50
     UNSATURATED ZONE =       -3313706.20       UNSATURATED ZONE =          -4316.15
       SATURATED ZONE =         591759.87         SATURATED ZONE =          -3300.44

 OVERALL BUDGET ERROR =          -2665.79           BUDGET ERROR =            -10.02


  PERCENT DISCREPANCY =             -0.02    PERCENT DISCREPANCY =             -0.02



1
 SUMMARY VOLUMETRIC BUDGET FOR GSFLOW 
 DATE: 04 07 1991              CUMULATIVE TIME STEP:       7
 MODFLOW STRESS PERIOD      8     CURRENT TIME STEP:     189     ITERATIONS:       6

 -----------------------------------------------------------------------------------

   CUMULATIVE VOLUMES               L**3   RATES FOR THIS TIME STEP           L**3/T
   ------------------                      ------------------------

                                     IN                                         IN
                                     --                                         --
        PRECIPITATION =        1.3018D+07          PRECIPITATION =                  
           STREAMFLOW =                               STREAMFLOW =                  
     GW BOUNDARY FLOW =             67.22       GW BOUNDARY FLOW =              1.11


                                    OUT                                        OUT
                                    ---                                        ---
   EVAPOTRANSPIRATION =        2844375.71     EVAPOTRANSPIRATION =          13548.64
           STREAMFLOW =        2172451.48             STREAMFLOW =          29501.53
     GW BOUNDARY FLOW =           6744.58       GW BOUNDARY FLOW =             35.11

   INFLOWS - OUTFLOWS =        7994232.18     INFLOWS - OUTFLOWS =         -43084.17
             --------                                   --------

 TOTAL STORAGE CHANGE =        7997011.45         STORAGE CHANGE =         -43074.94
       --------------                             --------------
         LAND SURFACE =        5033071.34           LAND SURFACE =         -59134.98
            SOIL ZONE =        5695641.47              SOIL ZONE =          10585.32
     UNSATURATED ZONE =       -3303115.30       UNSATURATED ZONE =           7901.06
       SATURATED ZONE =         571413.94         SATURATED ZONE =          -2426.34

 OVERALL BUDGET ERROR =          -2779.26           BUDGET ERROR =             -9.23


  PERCENT DISCREPANCY =             -0.02    PERCENT DISCREPANCY =             -0.02



1
 SUMMARY VOLUMETRIC BUDGET FOR GSFLOW 
 DATE: 04 14 1991              CUMULATIVE TIME STEP:      14
 MODFLOW STRESS PERIOD      8     CURRENT TIME STEP:     196     ITERATIONS:       7

 -----------------------------------------------------------------------------------

   CUMULATIVE VOLUMES               L**3   RATES FOR THIS TIME STEP           L**3/T
   ------------------                      ------------------------

                                     IN                                         IN
                                     --                                         --
        PRECIPITATION =        1.3018D+07          PRECIPITATION =                  
           STREAMFLOW =                               STREAMFLOW =                  
     GW BOUNDARY FLOW =             75.20       GW BOUNDARY FLOW =              1.16


                                    OUT                                        OUT
                                    ---                                        ---
   EVAPOTRANSPIRATION =        3014298.22     EVAPOTRANSPIRATION =          38955.66
           STREAMFLOW =        2488653.85             STREAMFLOW =          58497.30
     GW BOUNDARY FLOW =           6991.47       GW BOUNDARY FLOW =             35.40

   INFLOWS - OUTFLOWS =        7507868.40     INFLOWS - OUTFLOWS =         -97487.21
             --------                                   --------

 TOTAL STORAGE CHANGE =        7510734.06         STORAGE CHANGE =         -97483.74
       --------------                             --------------
         LAND SURFACE =        4428670.43           LAND SURFACE =        -170838.53
            SOIL ZONE =        5771571.72              SOIL ZONE =          67286.79
     UNSATURATED ZONE =       -3246368.30       UNSATURATED ZONE =           7838.30
       SATURATED ZONE =         556860.21         SATURATED ZONE =          -1770.30

 OVERALL BUDGET ERROR =          -2865.66           BUDGET ERROR =             -3.48


  PERCENT DISCREPANCY =             -0.02    PERCENT DISCREPANCY =             -0.00



1
 SUMMARY VOLUMETRIC BUDGET FOR GSFLOW 
 DATE: 04 21 1991              CUMULATIVE TIME STEP:      21
 MODFLOW STRESS PERIOD      8     CURRENT TIME STEP:     203     ITERATIONS:      10

 -----------------------------------------------------------------------------------

   CUMULATIVE VOLUMES               L**3   RATES FOR THIS TIME STEP           L**3/T
   ------------------                      ------------------------

                                     IN                                         IN
                                     --                                         --
        PRECIPITATION =        1.3034D+07          PRECIPITATION =                  
           STREAMFLOW =                               STREAMFLOW =                  
     GW BOUNDARY FLOW =             83.49       GW BOUNDARY FLOW =              1.20


                                    OUT                                        OUT
                                    ---                                        ---
   EVAPOTRANSPIRATION =        3246100.07     EVAPOTRANSPIRATION =          43459.74
           STREAMFLOW =        2955236.24             STREAMFLOW =          78871.72
     GW BOUNDARY FLOW =           7239.52       GW BOUNDARY FLOW =             35.54

   INFLOWS - OUTFLOWS =        6825569.75     INFLOWS - OUTFLOWS =        -122365.79
             --------                                   --------

 TOTAL STORAGE CHANGE =        6828455.05         STORAGE CHANGE =        -122364.88
       --------------                             --------------
         LAND SURFACE =        3288381.97           LAND SURFACE =        -224119.74
            SOIL ZONE =        6178726.58              SOIL ZONE =          92313.71
     UNSATURATED ZONE =       -3185294.99       UNSATURATED ZONE =          10659.03
       SATURATED ZONE =         546641.49         SATURATED ZONE =          -1217.87

 OVERALL BUDGET ERROR =          -2885.30           BUDGET ERROR =             -0.91


  PERCENT DISCREPANCY =             -0.02    PERCENT DISCREPANCY =             -0.00



1
 SUMMARY VOLUMETRIC BUDGET FOR GSFLOW 
 DATE: 04 28 1991              CUMULATIVE TIME STEP:      28
 MODFLOW STRESS PERIOD      8     CURRENT TIME STEP:     210     ITERATIONS:       7

 -----------------------------------------------------------------------------------

   CUMULATIVE VOLUMES               L**3   RATES FOR THIS TIME STEP           L**3/T
   ------------------                      ------------------------

                                     IN                                         IN
                                     --                                         --
        PRECIPITATION =        1.3303D+07          PRECIPITATION =                  
           STREAMFLOW =                               STREAMFLOW =                  
     GW BOUNDARY FLOW =             92.06       GW BOUNDARY FLOW =              1.24


                                    OUT                                        OUT
                                    ---                                        ---
   EVAPOTRANSPIRATION =        3493058.13     EVAPOTRANSPIRATION =          55283.23
           STREAMFLOW =        3527574.89             STREAMFLOW =          84190.52
     GW BOUNDARY FLOW =           7488.05       GW BOUNDARY FLOW =             35.48

   INFLOWS - OUTFLOWS =        6275401.50     INFLOWS - OUTFLOWS =        -139507.98
             --------                                   --------

 TOTAL STORAGE CHANGE =        6278303.28         STORAGE CHANGE =        -139505.71
       --------------                             --------------
         LAND SURFACE =        2542972.46           LAND SURFACE =        -158428.10
            SOIL ZONE =        6301045.97              SOIL ZONE =           8647.54
     UNSATURATED ZONE =       -3105743.60       UNSATURATED ZONE =          11053.74
       SATURATED ZONE =         540028.46         SATURATED ZONE =           -778.89

 OVERALL BUDGET ERROR =          -2901.78           BUDGET ERROR =             -2.27


  PERCENT DISCREPANCY =             -0.02    PERCENT DISCREPANCY =             -0.00



1
 SUMMARY VOLUMETRIC BUDGET FOR GSFLOW 
 DATE: 05 05 1991              CUMULATIVE TIME STEP:       5
 MODFLOW STRESS PERIOD      9     CURRENT TIME STEP:     217     ITERATIONS:       6

 -----------------------------------------------------------------------------------

   CUMULATIVE VOLUMES               L**3   RATES FOR THIS TIME STEP           L**3/T
   ------------------                      ------------------------

                                     IN                                         IN
                                     --                                         --
        PRECIPITATION =        1.3510D+07          PRECIPITATION =                  
           STREAMFLOW =                               STREAMFLOW =                  
     GW BOUNDARY FLOW =            100.90       GW BOUNDARY FLOW =              1.28


                                    OUT                                        OUT
                                    ---                                        ---
   EVAPOTRANSPIRATION =        3842127.69     EVAPOTRANSPIRATION =          84817.23
           STREAMFLOW =        4075861.41             STREAMFLOW =          83953.60
     GW BOUNDARY FLOW =           7735.46       GW BOUNDARY FLOW =             35.34

   INFLOWS - OUTFLOWS =        5584084.48     INFLOWS - OUTFLOWS =        -168804.89
             --------                                   --------

 TOTAL STORAGE CHANGE =        5587006.01         STORAGE CHANGE =        -168802.69
       --------------                             --------------
         LAND SURFACE =        1737575.88           LAND SURFACE =        -184922.32
            SOIL ZONE =        6344133.04              SOIL ZONE =           5528.48
     UNSATURATED ZONE =       -3029570.34       UNSATURATED ZONE =          11069.63
       SATURATED ZONE =         534867.42         SATURATED ZONE =           -478.48

 OVERALL BUDGET ERROR =          -2921.53           BUDGET ERROR =             -2.20


  PERCENT DISCREPANCY =             -0.02    PERCENT DISCREPANCY =             -0.00



1
 SUMMARY VOLUMETRIC BUDGET FOR GSFLOW 
 DATE: 05 12 1991              CUMULATIVE TIME STEP:      12
 MODFLOW STRESS PERIOD      9     CURRENT TIME STEP:     224     ITERATIONS:       6

 -----------------------------------------------------------------------------------

   CUMULATIVE VOLUMES               L**3   RATES FOR THIS TIME STEP           L**3/T
   ------------------                      ------------------------

                                     IN                                         IN
                                     --                                         --
        PRECIPITATION =        1.4029D+07          PRECIPITATION =                  
           STREAMFLOW =                               STREAMFLOW =                  
     GW BOUNDARY FLOW =            110.00       GW BOUNDARY FLOW =              1.32


                                    OUT                                        OUT
                                    ---                                        ---
   EVAPOTRANSPIRATION =        4212056.64     EVAPOTRANSPIRATION =          62594.93
           STREAMFLOW =        4638904.82             STREAMFLOW =          90523.10
     GW BOUNDARY FLOW =           7981.81       GW BOUNDARY FLOW =             35.22

   INFLOWS - OUTFLOWS =        5170388.89     INFLOWS - OUTFLOWS =        -153151.94
             --------                                   --------

 TOTAL STORAGE CHANGE =        5173324.55         STORAGE CHANGE =        -153149.48
       --------------                             --------------
         LAND SURFACE =        1228262.73           LAND SURFACE =        -215603.21
            SOIL ZONE =        6368609.17              SOIL ZONE =          52667.13
     UNSATURATED ZONE =       -2956434.88       UNSATURATED ZONE =          10276.07
       SATURATED ZONE =         532887.52         SATURATED ZONE =           -489.47

 OVERALL BUDGET ERROR =          -2935.66           BUDGET ERROR =             -2.47


  PERCENT DISCREPANCY =             -0.02    PERCENT DISCREPANCY =             -0.00



1
 SUMMARY VOLUMETRIC BUDGET FOR GSFLOW 
 DATE: 05 19 1991              CUMULATIVE TIME STEP:      19
 MODFLOW STRESS PERIOD      9     CURRENT TIME STEP:     231     ITERATIONS:       7

 -----------------------------------------------------------------------------------

   CUMULATIVE VOLUMES               L**3   RATES FOR THIS TIME STEP           L**3/T
   ------------------                      ------------------------

                                     IN                                         IN
                                     --                                         --
        PRECIPITATION =        1.4365D+07          PRECIPITATION =                  
           STREAMFLOW =                               STREAMFLOW =                  
     GW BOUNDARY FLOW =            119.36       GW BOUNDARY FLOW =              1.35


                                    OUT                                        OUT
                                    ---                                        ---
   EVAPOTRANSPIRATION =        4612165.48     EVAPOTRANSPIRATION =          17977.42
           STREAMFLOW =        5160090.72             STREAMFLOW =          62708.76
     GW BOUNDARY FLOW =           8226.44       GW BOUNDARY FLOW =             34.74

   INFLOWS - OUTFLOWS =        4585015.03     INFLOWS - OUTFLOWS =         -80719.56
             --------                                   --------

 TOTAL STORAGE CHANGE =        4587956.24         STORAGE CHANGE =         -80719.20
       --------------                             --------------
         LAND SURFACE =         710055.96           LAND SURFACE =         -20899.31
            SOIL ZONE =        6236673.10              SOIL ZONE =         -67907.02
     UNSATURATED ZONE =       -2890078.28       UNSATURATED ZONE =           8287.02
       SATURATED ZONE =         531305.44         SATURATED ZONE =           -199.88

 OVERALL BUDGET ERROR =          -2941.20           BUDGET ERROR =             -0.37


  PERCENT DISCREPANCY =             -0.02    PERCENT DISCREPANCY =             -0.00



1
 SUMMARY VOLUMETRIC BUDGET FOR GSFLOW 
 DATE: 05 26 1991              CUMULATIVE TIME STEP:      26
 MODFLOW STRESS PERIOD      9     CURRENT TIME STEP:     238     ITERATIONS:       7

 -----------------------------------------------------------------------------------

   CUMULATIVE VOLUMES               L**3   RATES FOR THIS TIME STEP           L**3/T
   ------------------                      ------------------------

                                     IN                                         IN
                                     --                                         --
        PRECIPITATION =        1.4426D+07          PRECIPITATION =                  
           STREAMFLOW =                               STREAMFLOW =                  
     GW BOUNDARY FLOW =            128.99       GW BOUNDARY FLOW =              1.39


                                    OUT                                        OUT
                                    ---                                        ---
   EVAPOTRANSPIRATION =        5259520.86     EVAPOTRANSPIRATION =          71093.69
           STREAMFLOW =        5531787.32             STREAMFLOW =          38255.46
     GW BOUNDARY FLOW =           8468.03       GW BOUNDARY FLOW =             34.24

   INFLOWS - OUTFLOWS =        3626850.39     INFLOWS - OUTFLOWS =        -109382.00
             --------                                   --------

 TOTAL STORAGE CHANGE =        3629793.14         STORAGE CHANGE =        -109381.84
       --------------                             --------------
         LAND SURFACE =         283723.71           LAND SURFACE =         -27810.11
            SOIL ZONE =        5661972.44              SOIL ZONE =         -84839.09
     UNSATURATED ZONE =       -2847310.98       UNSATURATED ZONE =           3379.89
       SATURATED ZONE =         531407.97         SATURATED ZONE =           -112.53

 OVERALL BUDGET ERROR =          -2942.76           BUDGET ERROR =             -0.16


  PERCENT DISCREPANCY =             -0.02    PERCENT DISCREPANCY =             -0.00



1
 SUMMARY VOLUMETRIC BUDGET FOR GSFLOW 
 DATE: 06 02 1991              CUMULATIVE TIME STEP:       2
 MODFLOW STRESS PERIOD     10     CURRENT TIME STEP:     245     ITERATIONS:       6

 -----------------------------------------------------------------------------------

   CUMULATIVE VOLUMES               L**3   RATES FOR THIS TIME STEP           L**3/T
   ------------------                      ------------------------

                                     IN                                         IN
                                     --                                         --
        PRECIPITATION =        1.4671D+07          PRECIPITATION =                  
           STREAMFLOW =                               STREAMFLOW =                  
     GW BOUNDARY FLOW =            138.90       GW BOUNDARY FLOW =              1.43


                                    OUT                                        OUT
                                    ---                                        ---
   EVAPOTRANSPIRATION =        5804467.53     EVAPOTRANSPIRATION =         119396.93
           STREAMFLOW =        5792327.53             STREAMFLOW =          31586.29
     GW BOUNDARY FLOW =           8706.94       GW BOUNDARY FLOW =             33.98

   INFLOWS - OUTFLOWS =        3065611.70     INFLOWS - OUTFLOWS =        -151015.76
             --------                                   --------

 TOTAL STORAGE CHANGE =        3068564.70         STORAGE CHANGE =        -151013.25
       --------------                             --------------
         LAND SURFACE =         133141.95           LAND SURFACE =         -21748.77
            SOIL ZONE =        5242495.19              SOIL ZONE =        -129376.92
     UNSATURATED ZONE =       -2835455.04       UNSATURATED ZONE =            825.93
       SATURATED ZONE =         528382.61         SATURATED ZONE =           -713.49

 OVERALL BUDGET ERROR =          -2953.00           BUDGET ERROR =             -2.52


  PERCENT DISCREPANCY =             -0.02    PERCENT DISCREPANCY =             -0.00



1
 SUMMARY VOLUMETRIC BUDGET FOR GSFLOW 
 DATE: 06 09 1991              CUMULATIVE TIME STEP:       9
 MODFLOW STRESS PERIOD     10     CURRENT TIME STEP:     252     ITERATIONS:       6

 -----------------------------------------------------------------------------------

   CUMULATIVE VOLUMES               L**3   RATES FOR THIS TIME STEP           L**3/T
   ------------------                      ------------------------

                                     IN                                         IN
                                     --                                         --
        PRECIPITATION =        1.4671D+07          PRECIPITATION =                  
           STREAMFLOW =                               STREAMFLOW =                  
     GW BOUNDARY FLOW =            149.09       GW BOUNDARY FLOW =              1.47


                                    OUT                                        OUT
                                    ---                                        ---
   EVAPOTRANSPIRATION =        6520877.25     EVAPOTRANSPIRATION =         166531.68
           STREAMFLOW =        5971613.92             STREAMFLOW =          21011.71
     GW BOUNDARY FLOW =           8943.42       GW BOUNDARY FLOW =             33.63

   INFLOWS - OUTFLOWS =        2169689.31     INFLOWS - OUTFLOWS =        -187575.56
             --------                                   --------

 TOTAL STORAGE CHANGE =        2172670.09         STORAGE CHANGE =        -187570.13
       --------------                             --------------
         LAND SURFACE =          42792.54           LAND SURFACE =         -14518.27
            SOIL ZONE =        4457255.56              SOIL ZONE =        -168149.01
     UNSATURATED ZONE =       -2847747.48       UNSATURATED ZONE =          -3488.66
       SATURATED ZONE =         520369.47         SATURATED ZONE =          -1414.19

 OVERALL BUDGET ERROR =          -2980.78           BUDGET ERROR =             -5.43


  PERCENT DISCREPANCY =             -0.02    PERCENT DISCREPANCY =             -0.00



1
 SUMMARY VOLUMETRIC BUDGET FOR GSFLOW 
 DATE: 06 16 1991              CUMULATIVE TIME STEP:      16
 MODFLOW STRESS PERIOD     10     CURRENT TIME STEP:     259     ITERATIONS:       6

 -----------------------------------------------------------------------------------

   CUMULATIVE VOLUMES               L**3   RATES FOR THIS TIME STEP           L**3/T
   ------------------                      ------------------------

                                     IN                                         IN
                                     --                                         --
        PRECIPITATION =        1.4671D+07          PRECIPITATION =                  
           STREAMFLOW =                               STREAMFLOW =                  
     GW BOUNDARY FLOW =            159.58       GW BOUNDARY FLOW =              1.51


                                    OUT                                        OUT
                                    ---                                        ---
   EVAPOTRANSPIRATION =        7480269.63     EVAPOTRANSPIRATION =         108473.03
           STREAMFLOW =        6095235.58             STREAMFLOW =          16821.08
     GW BOUNDARY FLOW =           9177.77       GW BOUNDARY FLOW =             33.40

   INFLOWS - OUTFLOWS =        1086451.40     INFLOWS - OUTFLOWS =        -125325.98
             --------                                   --------

 TOTAL STORAGE CHANGE =        1089491.60         STORAGE CHANGE =        -125316.47
       --------------                             --------------
         LAND SURFACE =           5456.07           LAND SURFACE =          -1579.06
            SOIL ZONE =        3481611.94              SOIL ZONE =        -109375.47
     UNSATURATED ZONE =       -2901731.97       UNSATURATED ZONE =         -11335.62
       SATURATED ZONE =         504155.55         SATURATED ZONE =          -3026.31

 OVERALL BUDGET ERROR =          -3040.19           BUDGET ERROR =             -9.52


  PERCENT DISCREPANCY =             -0.02    PERCENT DISCREPANCY =             -0.01



1
 SUMMARY VOLUMETRIC BUDGET FOR GSFLOW 
 DATE: 06 23 1991              CUMULATIVE TIME STEP:      23
 MODFLOW STRESS PERIOD     10     CURRENT TIME STEP:     266     ITERATIONS:      52

 -----------------------------------------------------------------------------------

   CUMULATIVE VOLUMES               L**3   RATES FOR THIS TIME STEP           L**3/T
   ------------------                      ------------------------

                                     IN                                         IN
                                     --                                         --
        PRECIPITATION =        1.4671D+07          PRECIPITATION =                  
           STREAMFLOW =                               STREAMFLOW =                  
     GW BOUNDARY FLOW =            170.24       GW BOUNDARY FLOW =              1.50


                                    OUT                                        OUT
                                    ---                                        ---
   EVAPOTRANSPIRATION =        7960095.51     EVAPOTRANSPIRATION =          34511.78
           STREAMFLOW =        6206735.81             STREAMFLOW =          15428.11
     GW BOUNDARY FLOW =           9410.83       GW BOUNDARY FLOW =             33.22

   INFLOWS - OUTFLOWS =         494902.90     INFLOWS - OUTFLOWS =         -49971.61
             --------                                   --------

 TOTAL STORAGE CHANGE =         497798.24         STORAGE CHANGE =         -49991.39
       --------------                             --------------
         LAND SURFACE =           1456.34           LAND SURFACE =           -205.23
            SOIL ZONE =        3002664.16              SOIL ZONE =         -35735.34
     UNSATURATED ZONE =       -2983549.24       UNSATURATED ZONE =          -9798.64
       SATURATED ZONE =         477226.97         SATURATED ZONE =          -4252.17

 OVERALL BUDGET ERROR =          -2895.34           BUDGET ERROR =             19.78


  PERCENT DISCREPANCY =             -0.02    PERCENT DISCREPANCY =              0.04



1
 SUMMARY VOLUMETRIC BUDGET FOR GSFLOW 
 DATE: 06 30 1991              CUMULATIVE TIME STEP:      30
 MODFLOW STRESS PERIOD     10     CURRENT TIME STEP:     273     ITERATIONS:       6

 -----------------------------------------------------------------------------------

   CUMULATIVE VOLUMES               L**3   RATES FOR THIS TIME STEP           L**3/T
   ------------------                      ------------------------

                                     IN                                         IN
[...]
                                    ---                                        ---
   EVAPOTRANSPIRATION =        7.3609D+07     EVAPOTRANSPIRATION =          83353.26
           STREAMFLOW =        6.9929D+07             STREAMFLOW =          11998.68
     GW BOUNDARY FLOW =          51261.50       GW BOUNDARY FLOW =             25.11

   INFLOWS - OUTFLOWS =       -1.0076D+07     INFLOWS - OUTFLOWS =         -95373.88
             --------                                   --------

 TOTAL STORAGE CHANGE =       -1.0095D+07         STORAGE CHANGE =         -95375.30
       --------------                             --------------
         LAND SURFACE =         396765.15           LAND SURFACE =         -19619.57
            SOIL ZONE =        2503304.38              SOIL ZONE =         -62240.46
     UNSATURATED ZONE =          87451.81       UNSATURATED ZONE =         -10043.90
       SATURATED ZONE =       -1.3083D+07         SATURATED ZONE =          -3471.37

 OVERALL BUDGET ERROR =          19691.12           BUDGET ERROR =              1.43


  PERCENT DISCREPANCY =              0.01    PERCENT DISCREPANCY =              0.00



1
 SUMMARY VOLUMETRIC BUDGET FOR GSFLOW 
 DATE: 09 03 1995              CUMULATIVE TIME STEP:       3
 MODFLOW STRESS PERIOD     61     CURRENT TIME STEP:    1799     ITERATIONS:       7

 -----------------------------------------------------------------------------------

   CUMULATIVE VOLUMES               L**3   RATES FOR THIS TIME STEP           L**3/T
   ------------------                      ------------------------

                                     IN                                         IN
                                     --                                         --
        PRECIPITATION =        1.3351D+08          PRECIPITATION =                  
           STREAMFLOW =                               STREAMFLOW =                  
     GW BOUNDARY FLOW =           5413.51       GW BOUNDARY FLOW =              3.28


                                    OUT                                        OUT
                                    ---                                        ---
   EVAPOTRANSPIRATION =        7.4173D+07     EVAPOTRANSPIRATION =          75721.00
           STREAMFLOW =        7.0014D+07             STREAMFLOW =          12493.24
     GW BOUNDARY FLOW =          51437.19       GW BOUNDARY FLOW =             25.09

   INFLOWS - OUTFLOWS =       -1.0725D+07     INFLOWS - OUTFLOWS =         -88236.06
             --------                                   --------

 TOTAL STORAGE CHANGE =       -1.0745D+07         STORAGE CHANGE =         -88243.94
       --------------                             --------------
         LAND SURFACE =         275471.38           LAND SURFACE =         -15477.21
            SOIL ZONE =        2078462.77              SOIL ZONE =         -57240.86
     UNSATURATED ZONE =          16818.10       UNSATURATED ZONE =         -10217.67
       SATURATED ZONE =       -1.3115D+07         SATURATED ZONE =          -5308.20

 OVERALL BUDGET ERROR =          19730.99           BUDGET ERROR =              7.89


  PERCENT DISCREPANCY =              0.01    PERCENT DISCREPANCY =              0.01



1
 SUMMARY VOLUMETRIC BUDGET FOR GSFLOW 
 DATE: 09 10 1995              CUMULATIVE TIME STEP:      10
 MODFLOW STRESS PERIOD     61     CURRENT TIME STEP:    1806     ITERATIONS:       6

 -----------------------------------------------------------------------------------

   CUMULATIVE VOLUMES               L**3   RATES FOR THIS TIME STEP           L**3/T
   ------------------                      ------------------------

                                     IN                                         IN
                                     --                                         --
        PRECIPITATION =        1.3351D+08          PRECIPITATION =                  
           STREAMFLOW =                               STREAMFLOW =                  
     GW BOUNDARY FLOW =           5436.88       GW BOUNDARY FLOW =              3.38


                                    OUT                                        OUT
                                    ---                                        ---
   EVAPOTRANSPIRATION =        7.4601D+07     EVAPOTRANSPIRATION =          57399.31
           STREAMFLOW =        7.0099D+07             STREAMFLOW =          11825.52
     GW BOUNDARY FLOW =          51612.61       GW BOUNDARY FLOW =             25.04

   INFLOWS - OUTFLOWS =       -1.1238D+07     INFLOWS - OUTFLOWS =         -69246.48
             --------                                   --------

 TOTAL STORAGE CHANGE =       -1.1258D+07         STORAGE CHANGE =         -69260.62
       --------------                             --------------
         LAND SURFACE =         195534.24           LAND SURFACE =          -9902.88
            SOIL ZONE =        1752949.90              SOIL ZONE =         -43612.56
     UNSATURATED ZONE =         -53719.90       UNSATURATED ZONE =          -9967.42
       SATURATED ZONE =       -1.3152D+07         SATURATED ZONE =          -5777.76

 OVERALL BUDGET ERROR =          19791.67           BUDGET ERROR =             14.14


  PERCENT DISCREPANCY =              0.01    PERCENT DISCREPANCY =              0.02



1
 SUMMARY VOLUMETRIC BUDGET FOR GSFLOW 
 DATE: 09 17 1995              CUMULATIVE TIME STEP:      17
 MODFLOW STRESS PERIOD     61     CURRENT TIME STEP:    1813     ITERATIONS:       7

 -----------------------------------------------------------------------------------

   CUMULATIVE VOLUMES               L**3   RATES FOR THIS TIME STEP           L**3/T
   ------------------                      ------------------------

                                     IN                                         IN
                                     --                                         --
        PRECIPITATION =        1.3351D+08          PRECIPITATION =                  
           STREAMFLOW =                               STREAMFLOW =                  
     GW BOUNDARY FLOW =           5460.99       GW BOUNDARY FLOW =              3.49


                                    OUT                                        OUT
                                    ---                                        ---
   EVAPOTRANSPIRATION =        7.5069D+07     EVAPOTRANSPIRATION =          53975.64
           STREAMFLOW =        7.0178D+07             STREAMFLOW =          11011.63
     GW BOUNDARY FLOW =          51787.62       GW BOUNDARY FLOW =             24.98

   INFLOWS - OUTFLOWS =       -1.1784D+07     INFLOWS - OUTFLOWS =         -65008.77
             --------                                   --------

 TOTAL STORAGE CHANGE =       -1.1804D+07         STORAGE CHANGE =         -65014.14
       --------------                             --------------
         LAND SURFACE =         125688.76           LAND SURFACE =          -7368.86
            SOIL ZONE =        1399642.12              SOIL ZONE =         -41252.70
     UNSATURATED ZONE =        -123548.15       UNSATURATED ZONE =          -9421.46
       SATURATED ZONE =       -1.3206D+07         SATURATED ZONE =          -6971.12

 OVERALL BUDGET ERROR =          19847.08           BUDGET ERROR =              5.37


  PERCENT DISCREPANCY =              0.01    PERCENT DISCREPANCY =              0.01



1
 SUMMARY VOLUMETRIC BUDGET FOR GSFLOW 
 DATE: 09 24 1995              CUMULATIVE TIME STEP:      24
 MODFLOW STRESS PERIOD     61     CURRENT TIME STEP:    1820     ITERATIONS:       6

 -----------------------------------------------------------------------------------

   CUMULATIVE VOLUMES               L**3   RATES FOR THIS TIME STEP           L**3/T
   ------------------                      ------------------------

                                     IN                                         IN
                                     --                                         --
        PRECIPITATION =        1.3351D+08          PRECIPITATION =                  
           STREAMFLOW =                               STREAMFLOW =                  
     GW BOUNDARY FLOW =           5485.79       GW BOUNDARY FLOW =              3.58


                                    OUT                                        OUT
                                    ---                                        ---
   EVAPOTRANSPIRATION =        7.5408D+07     EVAPOTRANSPIRATION =          35203.34
           STREAMFLOW =        7.0253D+07             STREAMFLOW =          10733.85
     GW BOUNDARY FLOW =          51962.30       GW BOUNDARY FLOW =             24.94

   INFLOWS - OUTFLOWS =       -1.2199D+07     INFLOWS - OUTFLOWS =         -45958.54
             --------                                   --------

 TOTAL STORAGE CHANGE =       -1.2219D+07         STORAGE CHANGE =         -45966.52
       --------------                             --------------
         LAND SURFACE =          83575.75           LAND SURFACE =          -4151.84
            SOIL ZONE =        1143434.62              SOIL ZONE =         -26134.32
     UNSATURATED ZONE =        -188643.76       UNSATURATED ZONE =          -9018.59
       SATURATED ZONE =       -1.3257D+07         SATURATED ZONE =          -6661.78

 OVERALL BUDGET ERROR =          19896.60           BUDGET ERROR =              7.98


  PERCENT DISCREPANCY =              0.01    PERCENT DISCREPANCY =              0.02



1
 SUMMARY VOLUMETRIC BUDGET FOR GSFLOW 
 DATE: 10 01 1995              CUMULATIVE TIME STEP:       1
 MODFLOW STRESS PERIOD     62     CURRENT TIME STEP:    1827     ITERATIONS:       7

 -----------------------------------------------------------------------------------

   CUMULATIVE VOLUMES               L**3   RATES FOR THIS TIME STEP           L**3/T
   ------------------                      ------------------------

                                     IN                                         IN
                                     --                                         --
        PRECIPITATION =        1.3351D+08          PRECIPITATION =                  
           STREAMFLOW =                               STREAMFLOW =                  
     GW BOUNDARY FLOW =           5511.25       GW BOUNDARY FLOW =              3.68


                                    OUT                                        OUT
                                    ---                                        ---
   EVAPOTRANSPIRATION =        7.5548D+07     EVAPOTRANSPIRATION =          21029.98
           STREAMFLOW =        7.0329D+07             STREAMFLOW =          10759.85
     GW BOUNDARY FLOW =          52136.80       GW BOUNDARY FLOW =             24.92

   INFLOWS - OUTFLOWS =       -1.2415D+07     INFLOWS - OUTFLOWS =         -31811.08
             --------                                   --------

 TOTAL STORAGE CHANGE =       -1.2435D+07         STORAGE CHANGE =         -31814.08
       --------------                             --------------
         LAND SURFACE =          66318.88           LAND SURFACE =          -2095.26
            SOIL ZONE =        1042049.27              SOIL ZONE =         -15434.78
     UNSATURATED ZONE =        -246691.85       UNSATURATED ZONE =          -8235.02
       SATURATED ZONE =       -1.3297D+07         SATURATED ZONE =          -6049.01

 OVERALL BUDGET ERROR =          19932.62           BUDGET ERROR =              3.00


  PERCENT DISCREPANCY =              0.01    PERCENT DISCREPANCY =              0.01



1
 SUMMARY VOLUMETRIC BUDGET FOR GSFLOW 
 DATE: 10 08 1995              CUMULATIVE TIME STEP:       8
 MODFLOW STRESS PERIOD     62     CURRENT TIME STEP:    1834     ITERATIONS:       6

 -----------------------------------------------------------------------------------

   CUMULATIVE VOLUMES               L**3   RATES FOR THIS TIME STEP           L**3/T
   ------------------                      ------------------------

                                     IN                                         IN
                                     --                                         --
        PRECIPITATION =        1.3351D+08          PRECIPITATION =                  
           STREAMFLOW =                               STREAMFLOW =                  
     GW BOUNDARY FLOW =           5537.32       GW BOUNDARY FLOW =              3.76


                                    OUT                                        OUT
                                    ---                                        ---
   EVAPOTRANSPIRATION =        7.5711D+07     EVAPOTRANSPIRATION =          20276.88
           STREAMFLOW =        7.0403D+07             STREAMFLOW =          10524.90
     GW BOUNDARY FLOW =          52311.10       GW BOUNDARY FLOW =             24.89

   INFLOWS - OUTFLOWS =       -1.2652D+07     INFLOWS - OUTFLOWS =         -30822.92
             --------                                   --------

 TOTAL STORAGE CHANGE =       -1.2672D+07         STORAGE CHANGE =         -30827.49
       --------------                             --------------
         LAND SURFACE =          51558.66           LAND SURFACE =          -1742.43
            SOIL ZONE =         923634.03              SOIL ZONE =         -14572.26
     UNSATURATED ZONE =        -304474.30       UNSATURATED ZONE =          -8072.46
       SATURATED ZONE =       -1.3342D+07         SATURATED ZONE =          -6440.35

 OVERALL BUDGET ERROR =          19965.73           BUDGET ERROR =              4.58


  PERCENT DISCREPANCY =              0.01    PERCENT DISCREPANCY =              0.01



1
 SUMMARY VOLUMETRIC BUDGET FOR GSFLOW 
 DATE: 10 15 1995              CUMULATIVE TIME STEP:      15
 MODFLOW STRESS PERIOD     62     CURRENT TIME STEP:    1841     ITERATIONS:       5

 -----------------------------------------------------------------------------------

   CUMULATIVE VOLUMES               L**3   RATES FOR THIS TIME STEP           L**3/T
   ------------------                      ------------------------

                                     IN                                         IN
                                     --                                         --
        PRECIPITATION =        1.3351D+08          PRECIPITATION =                  
           STREAMFLOW =                               STREAMFLOW =                  
     GW BOUNDARY FLOW =           5563.94       GW BOUNDARY FLOW =              3.84


                                    OUT                                        OUT
                                    ---                                        ---
   EVAPOTRANSPIRATION =        7.5869D+07     EVAPOTRANSPIRATION =          25144.32
           STREAMFLOW =        7.0475D+07             STREAMFLOW =          10190.44
     GW BOUNDARY FLOW =          52485.23       GW BOUNDARY FLOW =             24.86

   INFLOWS - OUTFLOWS =       -1.2882D+07     INFLOWS - OUTFLOWS =         -35355.78
             --------                                   --------

 TOTAL STORAGE CHANGE =       -1.2902D+07         STORAGE CHANGE =         -35361.92
       --------------                             --------------
         LAND SURFACE =          38802.94           LAND SURFACE =          -1819.31
            SOIL ZONE =         810946.62              SOIL ZONE =         -17793.93
     UNSATURATED ZONE =        -360030.89       UNSATURATED ZONE =          -8036.81
       SATURATED ZONE =       -1.3392D+07         SATURATED ZONE =          -7711.88

 OVERALL BUDGET ERROR =          19998.11           BUDGET ERROR =              6.14


  PERCENT DISCREPANCY =              0.01    PERCENT DISCREPANCY =              0.02



1
 SUMMARY VOLUMETRIC BUDGET FOR GSFLOW 
 DATE: 10 22 1995              CUMULATIVE TIME STEP:      22
 MODFLOW STRESS PERIOD     62     CURRENT TIME STEP:    1848     ITERATIONS:       6

 -----------------------------------------------------------------------------------

   CUMULATIVE VOLUMES               L**3   RATES FOR THIS TIME STEP           L**3/T
   ------------------                      ------------------------

                                     IN                                         IN
                                     --                                         --
        PRECIPITATION =        1.3351D+08          PRECIPITATION =                  
           STREAMFLOW =                               STREAMFLOW =                  
     GW BOUNDARY FLOW =           5591.07       GW BOUNDARY FLOW =              3.90


                                    OUT                                        OUT
                                    ---                                        ---
   EVAPOTRANSPIRATION =        7.6010D+07     EVAPOTRANSPIRATION =           5894.41
           STREAMFLOW =        7.0546D+07             STREAMFLOW =          10418.04
     GW BOUNDARY FLOW =          52659.19       GW BOUNDARY FLOW =             24.85

   INFLOWS - OUTFLOWS =       -1.3094D+07     INFLOWS - OUTFLOWS =         -16333.39
             --------                                   --------

 TOTAL STORAGE CHANGE =       -1.3114D+07         STORAGE CHANGE =         -16335.49
       --------------                             --------------
         LAND SURFACE =          28999.83           LAND SURFACE =           -464.22
            SOIL ZONE =         713471.02              SOIL ZONE =          -4026.53
     UNSATURATED ZONE =        -413337.95       UNSATURATED ZONE =          -6644.95
       SATURATED ZONE =       -1.3443D+07         SATURATED ZONE =          -5199.78

 OVERALL BUDGET ERROR =          20023.49           BUDGET ERROR =              2.09


  PERCENT DISCREPANCY =              0.01    PERCENT DISCREPANCY =              0.01



1
 SUMMARY VOLUMETRIC BUDGET FOR GSFLOW 
 DATE: 10 29 1995              CUMULATIVE TIME STEP:      29
 MODFLOW STRESS PERIOD     62     CURRENT TIME STEP:    1855     ITERATIONS:       9

 -----------------------------------------------------------------------------------

   CUMULATIVE VOLUMES               L**3   RATES FOR THIS TIME STEP           L**3/T
   ------------------                      ------------------------

                                     IN                                         IN
                                     --                                         --
        PRECIPITATION =        1.3351D+08          PRECIPITATION =                  
           STREAMFLOW =                               STREAMFLOW =                  
     GW BOUNDARY FLOW =           5618.76       GW BOUNDARY FLOW =              3.99


                                    OUT                                        OUT
                                    ---                                        ---
   EVAPOTRANSPIRATION =        7.6094D+07     EVAPOTRANSPIRATION =          14735.35
           STREAMFLOW =        7.0617D+07             STREAMFLOW =          10035.88
     GW BOUNDARY FLOW =          52832.61       GW BOUNDARY FLOW =             24.74

   INFLOWS - OUTFLOWS =       -1.3251D+07     INFLOWS - OUTFLOWS =         -24791.97
             --------                                   --------

 TOTAL STORAGE CHANGE =       -1.3271D+07         STORAGE CHANGE =         -24792.16
       --------------                             --------------
         LAND SURFACE =          24723.88           LAND SURFACE =           -960.36
            SOIL ZONE =         655820.12              SOIL ZONE =          -9693.98
     UNSATURATED ZONE =        -461609.57       UNSATURATED ZONE =          -6893.81
       SATURATED ZONE =       -1.3489D+07         SATURATED ZONE =          -7244.01

 OVERALL BUDGET ERROR =          20036.45           BUDGET ERROR =              0.19


  PERCENT DISCREPANCY =              0.01    PERCENT DISCREPANCY =              0.00



