1
 SUMMARY VOLUMETRIC BUDGET FOR GSFLOW 
 DATE: 10 07 1990              CUMULATIVE TIME STEP:       7
 MODFLOW STRESS PERIOD      2     CURRENT TIME STEP:       7     ITERATIONS:       7

 -----------------------------------------------------------------------------------

   CUMULATIVE VOLUMES               L**3   RATES FOR THIS TIME STEP           L**3/T
   ------------------                      ------------------------

                                     IN                                         IN
                                     --                                         --
        PRECIPITATION =                            PRECIPITATION =                  
           STREAMFLOW =                               STREAMFLOW =                  
     GW BOUNDARY FLOW =                         GW BOUNDARY FLOW =                  


                                    OUT                                        OUT
                                    ---                                        ---
   EVAPOTRANSPIRATION =         382454.68     EVAPOTRANSPIRATION =          12594.20
           STREAMFLOW =          46333.68             STREAMFLOW =           8173.51
     GW BOUNDARY FLOW =            252.80       GW BOUNDARY FLOW =             36.30

   INFLOWS - OUTFLOWS =        -429041.16     INFLOWS - OUTFLOWS =         -20804.01
             --------                                   --------

 TOTAL STORAGE CHANGE =        -427571.04         STORAGE CHANGE =         -20775.88
       --------------                             --------------
         LAND SURFACE =                             LAND SURFACE =                  
            SOIL ZONE =         -33477.43              SOIL ZONE =          -1008.96
     UNSATURATED ZONE =        -500077.08       UNSATURATED ZONE =         -33987.09
       SATURATED ZONE =         105983.48         SATURATED ZONE =          14220.17

 OVERALL BUDGET ERROR =          -1470.12           BUDGET ERROR =            -28.14


  PERCENT DISCREPANCY =             -0.34    PERCENT DISCREPANCY =             -0.14



1
 SUMMARY VOLUMETRIC BUDGET FOR GSFLOW 
 DATE: 10 14 1990              CUMULATIVE TIME STEP:      14
 MODFLOW STRESS PERIOD      2     CURRENT TIME STEP:      14     ITERATIONS:       6

 -----------------------------------------------------------------------------------

   CUMULATIVE VOLUMES               L**3   RATES FOR THIS TIME STEP           L**3/T
   ------------------                      ------------------------

                                     IN                                         IN
                                     --                                         --
        PRECIPITATION =                            PRECIPITATION =                  
           STREAMFLOW =                               STREAMFLOW =                  
     GW BOUNDARY FLOW =                         GW BOUNDARY FLOW =                  


                                    OUT                                        OUT
                                    ---                                        ---
   EVAPOTRANSPIRATION =         661797.03     EVAPOTRANSPIRATION =          42919.26
           STREAMFLOW =         101517.11             STREAMFLOW =           7470.73
     GW BOUNDARY FLOW =            506.65       GW BOUNDARY FLOW =             36.24

   INFLOWS - OUTFLOWS =        -763820.80     INFLOWS - OUTFLOWS =         -50426.23
             --------                                   --------

 TOTAL STORAGE CHANGE =        -762066.51         STORAGE CHANGE =         -50405.55
       --------------                             --------------
         LAND SURFACE =                             LAND SURFACE =                  
            SOIL ZONE =         -58389.37              SOIL ZONE =          -4450.25
     UNSATURATED ZONE =        -874317.74       UNSATURATED ZONE =         -52659.79
       SATURATED ZONE =         170640.60         SATURATED ZONE =           6704.48

 OVERALL BUDGET ERROR =          -1754.28           BUDGET ERROR =            -20.68


  PERCENT DISCREPANCY =             -0.23    PERCENT DISCREPANCY =             -0.04



1
 SUMMARY VOLUMETRIC BUDGET FOR GSFLOW 
 DATE: 10 21 1990              CUMULATIVE TIME STEP:      21
 MODFLOW STRESS PERIOD      2     CURRENT TIME STEP:      21     ITERATIONS:       6

 -----------------------------------------------------------------------------------

   CUMULATIVE VOLUMES               L**3   RATES FOR THIS TIME STEP           L**3/T
   ------------------                      ------------------------

                                     IN                                         IN
                                     --                                         --
        PRECIPITATION =         188432.87          PRECIPITATION =                  
           STREAMFLOW =                               STREAMFLOW =                  
     GW BOUNDARY FLOW =                         GW BOUNDARY FLOW =                  


                                    OUT                                        OUT
                                    ---                                        ---
   EVAPOTRANSPIRATION =         804092.47     EVAPOTRANSPIRATION =          36524.04
           STREAMFLOW =         164699.70             STREAMFLOW =          10140.83
     GW BOUNDARY FLOW =            760.85       GW BOUNDARY FLOW =             36.37

   INFLOWS - OUTFLOWS =        -781120.15     INFLOWS - OUTFLOWS =         -46701.24
             --------                                   --------

 TOTAL STORAGE CHANGE =        -779314.03         STORAGE CHANGE =         -46705.62
       --------------                             --------------
         LAND SURFACE =          15977.62           LAND SURFACE =         -34861.64
            SOIL ZONE =          57277.01              SOIL ZONE =           -416.86
     UNSATURATED ZONE =       -1086636.10       UNSATURATED ZONE =         -22030.68
       SATURATED ZONE =         234067.45         SATURATED ZONE =          10603.57

 OVERALL BUDGET ERROR =          -1806.12           BUDGET ERROR =              4.38


  PERCENT DISCREPANCY =             -0.19    PERCENT DISCREPANCY =              0.01



1
 SUMMARY VOLUMETRIC BUDGET FOR GSFLOW 
 DATE: 10 28 1990              CUMULATIVE TIME STEP:      28
 MODFLOW STRESS PERIOD      2     CURRENT TIME STEP:      28     ITERATIONS:       7

 -----------------------------------------------------------------------------------

   CUMULATIVE VOLUMES               L**3   RATES FOR THIS TIME STEP           L**3/T
   ------------------                      ------------------------

                                     IN                                         IN
                                     --                                         --
        PRECIPITATION =         188432.87          PRECIPITATION =                  
           STREAMFLOW =                               STREAMFLOW =                  
     GW BOUNDARY FLOW =                         GW BOUNDARY FLOW =                  


                                    OUT                                        OUT
                                    ---                                        ---
   EVAPOTRANSPIRATION =         929175.14     EVAPOTRANSPIRATION =          11270.11
           STREAMFLOW =         226423.13             STREAMFLOW =           9006.05
     GW BOUNDARY FLOW =           1014.04       GW BOUNDARY FLOW =             36.13

   INFLOWS - OUTFLOWS =        -968179.44     INFLOWS - OUTFLOWS =         -20312.28
             --------                                   --------

 TOTAL STORAGE CHANGE =        -966359.68         STORAGE CHANGE =         -20312.06
       --------------                             --------------
         LAND SURFACE =                             LAND SURFACE =                  
            SOIL ZONE =          29050.57              SOIL ZONE =          -3313.81
     UNSATURATED ZONE =       -1271286.18       UNSATURATED ZONE =         -23188.52
       SATURATED ZONE =         275875.93         SATURATED ZONE =           6190.27

 OVERALL BUDGET ERROR =          -1819.75           BUDGET ERROR =             -0.22


  PERCENT DISCREPANCY =             -0.16    PERCENT DISCREPANCY =             -0.00



1
 SUMMARY VOLUMETRIC BUDGET FOR GSFLOW 
 DATE: 11 04 1990              CUMULATIVE TIME STEP:       4
 MODFLOW STRESS PERIOD      3     CURRENT TIME STEP:      35     ITERATIONS:       6

 -----------------------------------------------------------------------------------

   CUMULATIVE VOLUMES               L**3   RATES FOR THIS TIME STEP           L**3/T
   ------------------                      ------------------------

                                     IN                                         IN
                                     --                                         --
        PRECIPITATION =         703113.06          PRECIPITATION =                  
           STREAMFLOW =                               STREAMFLOW =                  
     GW BOUNDARY FLOW =                         GW BOUNDARY FLOW =                  


                                    OUT                                        OUT
                                    ---                                        ---
   EVAPOTRANSPIRATION =         988426.67     EVAPOTRANSPIRATION =          25494.12
           STREAMFLOW =         297022.35             STREAMFLOW =          10529.15
     GW BOUNDARY FLOW =           1267.08       GW BOUNDARY FLOW =             36.13

   INFLOWS - OUTFLOWS =        -583603.03     INFLOWS - OUTFLOWS =         -36059.41
             --------                                   --------

 TOTAL STORAGE CHANGE =        -581808.57         STORAGE CHANGE =         -36064.08
       --------------                             --------------
         LAND SURFACE =          71009.70           LAND SURFACE =         -84159.07
            SOIL ZONE =         427934.29              SOIL ZONE =          58903.65
     UNSATURATED ZONE =       -1417088.85       UNSATURATED ZONE =         -20105.38
       SATURATED ZONE =         336336.29         SATURATED ZONE =           9296.71

 OVERALL BUDGET ERROR =          -1794.46           BUDGET ERROR =              4.68


  PERCENT DISCREPANCY =             -0.14    PERCENT DISCREPANCY =              0.01



1
 SUMMARY VOLUMETRIC BUDGET FOR GSFLOW 
 DATE: 11 11 1990              CUMULATIVE TIME STEP:      11
 MODFLOW STRESS PERIOD      3     CURRENT TIME STEP:      42     ITERATIONS:       6

 -----------------------------------------------------------------------------------

   CUMULATIVE VOLUMES               L**3   RATES FOR THIS TIME STEP           L**3/T
   ------------------                      ------------------------

                                     IN                                         IN
                                     --                                         --
        PRECIPITATION =         703113.06          PRECIPITATION =                  
           STREAMFLOW =                               STREAMFLOW =                  
     GW BOUNDARY FLOW =                         GW BOUNDARY FLOW =                  


                                    OUT                                        OUT
                                    ---                                        ---
   EVAPOTRANSPIRATION =        1061179.07     EVAPOTRANSPIRATION =          12486.03
           STREAMFLOW =         367886.33             STREAMFLOW =           9663.41
     GW BOUNDARY FLOW =           1519.18       GW BOUNDARY FLOW =             35.93

   INFLOWS - OUTFLOWS =        -727471.53     INFLOWS - OUTFLOWS =         -22185.36
             --------                                   --------

 TOTAL STORAGE CHANGE =        -725701.35         STORAGE CHANGE =         -22188.06
       --------------                             --------------
         LAND SURFACE =            295.92           LAND SURFACE =           -859.89
            SOIL ZONE =         445426.51              SOIL ZONE =          -6271.32
     UNSATURATED ZONE =       -1557231.43       UNSATURATED ZONE =         -20014.99
       SATURATED ZONE =         385807.65         SATURATED ZONE =           4958.13

 OVERALL BUDGET ERROR =          -1770.18           BUDGET ERROR =              2.70


  PERCENT DISCREPANCY =             -0.12    PERCENT DISCREPANCY =              0.01



1
 SUMMARY VOLUMETRIC BUDGET FOR GSFLOW 
 DATE: 11 18 1990              CUMULATIVE TIME STEP:      18
 MODFLOW STRESS PERIOD      3     CURRENT TIME STEP:      49     ITERATIONS:       6

 -----------------------------------------------------------------------------------

   CUMULATIVE VOLUMES               L**3   RATES FOR THIS TIME STEP           L**3/T
   ------------------                      ------------------------

                                     IN                                         IN
                                     --                                         --
        PRECIPITATION =         747883.35          PRECIPITATION =                  
           STREAMFLOW =                               STREAMFLOW =                  
     GW BOUNDARY FLOW =                         GW BOUNDARY FLOW =                  


                                    OUT                                        OUT
                                    ---                                        ---
   EVAPOTRANSPIRATION =        1130093.79     EVAPOTRANSPIRATION =           5354.63
           STREAMFLOW =         439576.12             STREAMFLOW =          10667.36
     GW BOUNDARY FLOW =           1770.50       GW BOUNDARY FLOW =             35.88

   INFLOWS - OUTFLOWS =        -823557.06     INFLOWS - OUTFLOWS =         -16057.88
             --------                                   --------

 TOTAL STORAGE CHANGE =        -821803.86         STORAGE CHANGE =         -16061.58
       --------------                             --------------
         LAND SURFACE =          10077.61           LAND SURFACE =          -4199.79
            SOIL ZONE =         428576.23              SOIL ZONE =           -533.75
     UNSATURATED ZONE =       -1691046.40       UNSATURATED ZONE =         -18669.63
       SATURATED ZONE =         430588.70         SATURATED ZONE =           7341.59

 OVERALL BUDGET ERROR =          -1753.20           BUDGET ERROR =              3.70


  PERCENT DISCREPANCY =             -0.11    PERCENT DISCREPANCY =              0.02



1
 SUMMARY VOLUMETRIC BUDGET FOR GSFLOW 
 DATE: 11 25 1990              CUMULATIVE TIME STEP:      25
 MODFLOW STRESS PERIOD      3     CURRENT TIME STEP:      56     ITERATIONS:       6

 -----------------------------------------------------------------------------------

   CUMULATIVE VOLUMES               L**3   RATES FOR THIS TIME STEP           L**3/T
   ------------------                      ------------------------

                                     IN                                         IN
                                     --                                         --
        PRECIPITATION =        1009043.38          PRECIPITATION =         186542.88
           STREAMFLOW =                               STREAMFLOW =                  
     GW BOUNDARY FLOW =                         GW BOUNDARY FLOW =                  


                                    OUT                                        OUT
                                    ---                                        ---
   EVAPOTRANSPIRATION =        1189911.38     EVAPOTRANSPIRATION =           3827.79
           STREAMFLOW =         515342.44             STREAMFLOW =          10747.97
     GW BOUNDARY FLOW =           2021.43       GW BOUNDARY FLOW =             35.79

   INFLOWS - OUTFLOWS =        -698231.87     INFLOWS - OUTFLOWS =         171931.32
             --------                                   --------

 TOTAL STORAGE CHANGE =        -696498.26         STORAGE CHANGE =         171928.92
       --------------                             --------------
         LAND SURFACE =          92124.67           LAND SURFACE =          75233.82
            SOIL ZONE =         550346.75              SOIL ZONE =         108356.86
     UNSATURATED ZONE =       -1819026.44       UNSATURATED ZONE =         -17983.38
       SATURATED ZONE =         480056.76         SATURATED ZONE =           6321.62

 OVERALL BUDGET ERROR =          -1733.61           BUDGET ERROR =              2.40


  PERCENT DISCREPANCY =             -0.10    PERCENT DISCREPANCY =              0.00



1
 SUMMARY VOLUMETRIC BUDGET FOR GSFLOW 
 DATE: 12 02 1990              CUMULATIVE TIME STEP:       2
 MODFLOW STRESS PERIOD      4     CURRENT TIME STEP:      63     ITERATIONS:       6

 -----------------------------------------------------------------------------------

   CUMULATIVE VOLUMES               L**3   RATES FOR THIS TIME STEP           L**3/T
   ------------------                      ------------------------

                                     IN                                         IN
                                     --                                         --
        PRECIPITATION =        1449284.55          PRECIPITATION =                  
           STREAMFLOW =                               STREAMFLOW =                  
     GW BOUNDARY FLOW =                         GW BOUNDARY FLOW =                  


                                    OUT                                        OUT
                                    ---                                        ---
   EVAPOTRANSPIRATION =        1197479.77     EVAPOTRANSPIRATION =            374.47
           STREAMFLOW =         592293.60             STREAMFLOW =          11043.03
     GW BOUNDARY FLOW =           2271.91       GW BOUNDARY FLOW =             35.77

   INFLOWS - OUTFLOWS =        -342760.73     INFLOWS - OUTFLOWS =         -11453.27
             --------                                   --------

 TOTAL STORAGE CHANGE =        -341042.56         STORAGE CHANGE =         -11455.14
       --------------                             --------------
         LAND SURFACE =         493448.43           LAND SURFACE =           -453.37
            SOIL ZONE =         582602.09              SOIL ZONE =            209.35
     UNSATURATED ZONE =       -1942220.38       UNSATURATED ZONE =         -17304.02
       SATURATED ZONE =         525127.30         SATURATED ZONE =           6092.90

 OVERALL BUDGET ERROR =          -1718.17           BUDGET ERROR =              1.87


  PERCENT DISCREPANCY =             -0.10    PERCENT DISCREPANCY =              0.02



1
 SUMMARY VOLUMETRIC BUDGET FOR GSFLOW 
 DATE: 12 09 1990              CUMULATIVE TIME STEP:       9
 MODFLOW STRESS PERIOD      4     CURRENT TIME STEP:      70     ITERATIONS:       6

 -----------------------------------------------------------------------------------

   CUMULATIVE VOLUMES               L**3   RATES FOR THIS TIME STEP           L**3/T
   ------------------                      ------------------------

                                     IN                                         IN
                                     --                                         --
        PRECIPITATION =        1449284.55          PRECIPITATION =                  
           STREAMFLOW =                               STREAMFLOW =                  
     GW BOUNDARY FLOW =                         GW BOUNDARY FLOW =                  


                                    OUT                                        OUT
                                    ---                                        ---
   EVAPOTRANSPIRATION =        1274389.77     EVAPOTRANSPIRATION =          13604.45
           STREAMFLOW =         669130.18             STREAMFLOW =          10702.98
     GW BOUNDARY FLOW =           2521.84       GW BOUNDARY FLOW =             35.64

   INFLOWS - OUTFLOWS =        -496757.24     INFLOWS - OUTFLOWS =         -24343.07
             --------                                   --------

 TOTAL STORAGE CHANGE =        -495051.74         STORAGE CHANGE =         -24343.70
       --------------                             --------------
         LAND SURFACE =          66382.66           LAND SURFACE =         -46525.53
            SOIL ZONE =         937687.78              SOIL ZONE =          34918.71
     UNSATURATED ZONE =       -2060356.88       UNSATURATED ZONE =         -16527.98
       SATURATED ZONE =         561234.69         SATURATED ZONE =           3791.09

 OVERALL BUDGET ERROR =          -1705.50           BUDGET ERROR =              0.63


  PERCENT DISCREPANCY =             -0.09    PERCENT DISCREPANCY =              0.00



1
 SUMMARY VOLUMETRIC BUDGET FOR GSFLOW 
 DATE: 12 16 1990              CUMULATIVE TIME STEP:      16
 MODFLOW STRESS PERIOD      4     CURRENT TIME STEP:      77     ITERATIONS:       6

 -----------------------------------------------------------------------------------

   CUMULATIVE VOLUMES               L**3   RATES FOR THIS TIME STEP           L**3/T
   ------------------                      ------------------------

                                     IN                                         IN
                                     --                                         --
        PRECIPITATION =        1804962.84          PRECIPITATION =                  
           STREAMFLOW =                               STREAMFLOW =                  
     GW BOUNDARY FLOW =                         GW BOUNDARY FLOW =                  


                                    OUT                                        OUT
                                    ---                                        ---
   EVAPOTRANSPIRATION =        1302718.94     EVAPOTRANSPIRATION =                  
           STREAMFLOW =         747563.80             STREAMFLOW =          11395.81
     GW BOUNDARY FLOW =           2771.22       GW BOUNDARY FLOW =             35.61

   INFLOWS - OUTFLOWS =        -248091.12     INFLOWS - OUTFLOWS =         -11431.41
             --------                                   --------

 TOTAL STORAGE CHANGE =        -246393.45         STORAGE CHANGE =         -11431.98
       --------------                             --------------
         LAND SURFACE =         256077.36           LAND SURFACE =                  
            SOIL ZONE =        1079650.74              SOIL ZONE =            148.92
     UNSATURATED ZONE =       -2174021.08       UNSATURATED ZONE =         -15982.65
       SATURATED ZONE =         591899.53         SATURATED ZONE =           4401.75

 OVERALL BUDGET ERROR =          -1697.67           BUDGET ERROR =              0.57


  PERCENT DISCREPANCY =             -0.08    PERCENT DISCREPANCY =              0.00



1
 SUMMARY VOLUMETRIC BUDGET FOR GSFLOW 
 DATE: 12 23 1990              CUMULATIVE TIME STEP:      23
 MODFLOW STRESS PERIOD      4     CURRENT TIME STEP:      84     ITERATIONS:       6

 -----------------------------------------------------------------------------------

   CUMULATIVE VOLUMES               L**3   RATES FOR THIS TIME STEP           L**3/T
   ------------------                      ------------------------

                                     IN                                         IN
                                     --                                         --
        PRECIPITATION =        2276236.55          PRECIPITATION =                  
           STREAMFLOW =                               STREAMFLOW =                  
     GW BOUNDARY FLOW =              0.08       GW BOUNDARY FLOW =              0.04


                                    OUT                                        OUT
                                    ---                                        ---
   EVAPOTRANSPIRATION =        1304093.55     EVAPOTRANSPIRATION =                  
           STREAMFLOW =         827761.96             STREAMFLOW =          11496.27
     GW BOUNDARY FLOW =           3020.23       GW BOUNDARY FLOW =             35.57

   INFLOWS - OUTFLOWS =         141360.89     INFLOWS - OUTFLOWS =         -11531.80
             --------                                   --------

 TOTAL STORAGE CHANGE =         143057.79         STORAGE CHANGE =         -11531.52
       --------------                             --------------
         LAND SURFACE =         725980.66           LAND SURFACE =                  
            SOIL ZONE =        1080737.08              SOIL ZONE =            158.82
     UNSATURATED ZONE =       -2283438.79       UNSATURATED ZONE =         -15383.20
       SATURATED ZONE =         619778.84         SATURATED ZONE =           3692.86

 OVERALL BUDGET ERROR =          -1696.90           BUDGET ERROR =             -0.28


  PERCENT DISCREPANCY =             -0.07    PERCENT DISCREPANCY =             -0.00



1
 SUMMARY VOLUMETRIC BUDGET FOR GSFLOW 
 DATE: 12 30 1990              CUMULATIVE TIME STEP:      30
 MODFLOW STRESS PERIOD      4     CURRENT TIME STEP:      91     ITERATIONS:       5

 -----------------------------------------------------------------------------------

   CUMULATIVE VOLUMES               L**3   RATES FOR THIS TIME STEP           L**3/T
   ------------------                      ------------------------

                                     IN                                         IN
                                     --                                         --
        PRECIPITATION =        2276236.55          PRECIPITATION =                  
           STREAMFLOW =                               STREAMFLOW =                  
     GW BOUNDARY FLOW =              0.77       GW BOUNDARY FLOW =              0.14


                                    OUT                                        OUT
                                    ---                                        ---
   EVAPOTRANSPIRATION =        1304846.19     EVAPOTRANSPIRATION =                  
           STREAMFLOW =         908632.97             STREAMFLOW =          11596.07
     GW BOUNDARY FLOW =           3269.33       GW BOUNDARY FLOW =             35.60

   INFLOWS - OUTFLOWS =          59488.83     INFLOWS - OUTFLOWS =         -11631.52
             --------                                   --------

 TOTAL STORAGE CHANGE =          61195.79         STORAGE CHANGE =         -11629.13
       --------------                             --------------
         LAND SURFACE =         725228.17           LAND SURFACE =                  
            SOIL ZONE =        1081893.26              SOIL ZONE =            170.41
     UNSATURATED ZONE =       -2388971.19       UNSATURATED ZONE =         -14845.36
       SATURATED ZONE =         643045.55         SATURATED ZONE =           3045.83

 OVERALL BUDGET ERROR =          -1706.96           BUDGET ERROR =             -2.39


  PERCENT DISCREPANCY =             -0.07    PERCENT DISCREPANCY =             -0.02



1
 SUMMARY VOLUMETRIC BUDGET FOR GSFLOW 
 DATE: 01 06 1991              CUMULATIVE TIME STEP:       6
 MODFLOW STRESS PERIOD      5     CURRENT TIME STEP:      98     ITERATIONS:       5

 -----------------------------------------------------------------------------------

   CUMULATIVE VOLUMES               L**3   RATES FOR THIS TIME STEP           L**3/T
   ------------------                      ------------------------

                                     IN                                         IN
                                     --                                         --
        PRECIPITATION =        2276236.55          PRECIPITATION =                  
           STREAMFLOW =                               STREAMFLOW =                  
     GW BOUNDARY FLOW =              2.10       GW BOUNDARY FLOW =              0.22


                                    OUT                                        OUT
                                    ---                                        ---
   EVAPOTRANSPIRATION =        1328114.74     EVAPOTRANSPIRATION =           2582.15
           STREAMFLOW =         990148.02             STREAMFLOW =          11677.49
     GW BOUNDARY FLOW =           3519.18       GW BOUNDARY FLOW =             35.75

   INFLOWS - OUTFLOWS =         -45543.30     INFLOWS - OUTFLOWS =         -14295.17
             --------                                   --------

 TOTAL STORAGE CHANGE =         -43813.09         STORAGE CHANGE =         -14291.42
       --------------                             --------------
         LAND SURFACE =         620283.30           LAND SURFACE =          -6112.33
            SOIL ZONE =        1164833.28              SOIL ZONE =           3712.29
     UNSATURATED ZONE =       -2490566.15       UNSATURATED ZONE =         -14274.94
       SATURATED ZONE =         661636.48         SATURATED ZONE =           2383.57

 OVERALL BUDGET ERROR =          -1730.21           BUDGET ERROR =             -3.75


  PERCENT DISCREPANCY =             -0.07    PERCENT DISCREPANCY =             -0.03



1
 SUMMARY VOLUMETRIC BUDGET FOR GSFLOW 
 DATE: 01 13 1991              CUMULATIVE TIME STEP:      13
 MODFLOW STRESS PERIOD      5     CURRENT TIME STEP:     105     ITERATIONS:       6

 -----------------------------------------------------------------------------------

   CUMULATIVE VOLUMES               L**3   RATES FOR THIS TIME STEP           L**3/T
   ------------------                      ------------------------

                                     IN                                         IN
                                     --                                         --
        PRECIPITATION =        2596386.94          PRECIPITATION =          10327.43
           STREAMFLOW =                               STREAMFLOW =                  
     GW BOUNDARY FLOW =              4.02       GW BOUNDARY FLOW =              0.31


                                    OUT                                        OUT
                                    ---                                        ---
   EVAPOTRANSPIRATION =        1387948.07     EVAPOTRANSPIRATION =          16662.90
           STREAMFLOW =        1071802.84             STREAMFLOW =          11523.69
     GW BOUNDARY FLOW =           3769.39       GW BOUNDARY FLOW =             35.72

   INFLOWS - OUTFLOWS =         132870.67     INFLOWS - OUTFLOWS =         -17894.57
             --------                                   --------

 TOTAL STORAGE CHANGE =         134632.59         STORAGE CHANGE =         -17891.87
       --------------                             --------------
         LAND SURFACE =         586364.86           LAND SURFACE =        -135127.18
            SOIL ZONE =        1461875.72              SOIL ZONE =         130012.11
     UNSATURATED ZONE =       -2588128.15       UNSATURATED ZONE =         -13744.32
       SATURATED ZONE =         674520.15         SATURATED ZONE =            967.52

 OVERALL BUDGET ERROR =          -1761.92           BUDGET ERROR =             -2.69


  PERCENT DISCREPANCY =             -0.07    PERCENT DISCREPANCY =             -0.01



1
 SUMMARY VOLUMETRIC BUDGET FOR GSFLOW 
 DATE: 01 20 1991              CUMULATIVE TIME STEP:      20
 MODFLOW STRESS PERIOD      5     CURRENT TIME STEP:     112     ITERATIONS:       5

 -----------------------------------------------------------------------------------

   CUMULATIVE VOLUMES               L**3   RATES FOR THIS TIME STEP           L**3/T
   ------------------                      ------------------------

                                     IN                                         IN
                                     --                                         --
        PRECIPITATION =        2596386.94          PRECIPITATION =                  
           STREAMFLOW =                               STREAMFLOW =                  
     GW BOUNDARY FLOW =              6.55       GW BOUNDARY FLOW =              0.40


                                    OUT                                        OUT
                                    ---                                        ---
   EVAPOTRANSPIRATION =        1456191.64     EVAPOTRANSPIRATION =           1812.03
           STREAMFLOW =        1153930.29             STREAMFLOW =          11777.79
     GW BOUNDARY FLOW =           4019.61       GW BOUNDARY FLOW =             35.75

   INFLOWS - OUTFLOWS =         -17748.04     INFLOWS - OUTFLOWS =         -13625.17
             --------                                   --------

 TOTAL STORAGE CHANGE =         -15941.51         STORAGE CHANGE =         -13617.57
       --------------                             --------------
         LAND SURFACE =         422210.59           LAND SURFACE =           -295.67
            SOIL ZONE =        1560266.65              SOIL ZONE =          -1285.29
     UNSATURATED ZONE =       -2681772.80       UNSATURATED ZONE =         -13153.44
       SATURATED ZONE =         683354.06         SATURATED ZONE =           1116.84

 OVERALL BUDGET ERROR =          -1806.54           BUDGET ERROR =             -7.61


  PERCENT DISCREPANCY =             -0.07    PERCENT DISCREPANCY =             -0.06



1
 SUMMARY VOLUMETRIC BUDGET FOR GSFLOW 
 DATE: 01 27 1991              CUMULATIVE TIME STEP:      27
 MODFLOW STRESS PERIOD      5     CURRENT TIME STEP:     119     ITERATIONS:       5

 -----------------------------------------------------------------------------------

   CUMULATIVE VOLUMES               L**3   RATES FOR THIS TIME STEP           L**3/T
   ------------------                      ------------------------

                                     IN                                         IN
                                     --                                         --
        PRECIPITATION =        2596386.94          PRECIPITATION =                  
           STREAMFLOW =                               STREAMFLOW =                  
     GW BOUNDARY FLOW =              9.66       GW BOUNDARY FLOW =              0.48


                                    OUT                                        OUT
                                    ---                                        ---
   EVAPOTRANSPIRATION =        1477188.60     EVAPOTRANSPIRATION =           1217.86
           STREAMFLOW =        1236549.00             STREAMFLOW =          11838.17
     GW BOUNDARY FLOW =           4269.80       GW BOUNDARY FLOW =             35.74

   INFLOWS - OUTFLOWS =        -121610.79     INFLOWS - OUTFLOWS =         -13091.29
             --------                                   --------

 TOTAL STORAGE CHANGE =        -119744.66         STORAGE CHANGE =         -13082.27
       --------------                             --------------
         LAND SURFACE =         394226.40           LAND SURFACE =           -109.80
            SOIL ZONE =        1569252.39              SOIL ZONE =           -901.82
     UNSATURATED ZONE =       -2771887.52       UNSATURATED ZONE =         -12654.88
       SATURATED ZONE =         688664.07         SATURATED ZONE =            584.24

 OVERALL BUDGET ERROR =          -1866.13           BUDGET ERROR =             -9.02


  PERCENT DISCREPANCY =             -0.07    PERCENT DISCREPANCY =             -0.07



1
 SUMMARY VOLUMETRIC BUDGET FOR GSFLOW 
 DATE: 02 03 1991              CUMULATIVE TIME STEP:       3
 MODFLOW STRESS PERIOD      6     CURRENT TIME STEP:     126     ITERATIONS:       6

 -----------------------------------------------------------------------------------

   CUMULATIVE VOLUMES               L**3   RATES FOR THIS TIME STEP           L**3/T
   ------------------                      ------------------------

                                     IN                                         IN
                                     --                                         --
        PRECIPITATION =        3228422.31          PRECIPITATION =          30459.53
           STREAMFLOW =                               STREAMFLOW =                  
     GW BOUNDARY FLOW =             13.32       GW BOUNDARY FLOW =              0.55


                                    OUT                                        OUT
                                    ---                                        ---
   EVAPOTRANSPIRATION =        1575633.85     EVAPOTRANSPIRATION =          20017.45
           STREAMFLOW =        1319372.17             STREAMFLOW =          11861.61
     GW BOUNDARY FLOW =           4519.91       GW BOUNDARY FLOW =             35.73

   INFLOWS - OUTFLOWS =         328909.69     INFLOWS - OUTFLOWS =          -1454.70
             --------                                   --------

 TOTAL STORAGE CHANGE =         330833.96         STORAGE CHANGE =          -1450.12
       --------------                             --------------
         LAND SURFACE =         184727.70           LAND SURFACE =         -28670.24
            SOIL ZONE =        2316491.75              SOIL ZONE =          39668.09
     UNSATURATED ZONE =       -2858880.20       UNSATURATED ZONE =         -12237.24
       SATURATED ZONE =         688494.70         SATURATED ZONE =           -210.73

 OVERALL BUDGET ERROR =          -1924.27           BUDGET ERROR =             -4.58


  PERCENT DISCREPANCY =             -0.06    PERCENT DISCREPANCY =             -0.01



1
 SUMMARY VOLUMETRIC BUDGET FOR GSFLOW 
 DATE: 02 10 1991              CUMULATIVE TIME STEP:      10
 MODFLOW STRESS PERIOD      6     CURRENT TIME STEP:     133     ITERATIONS:      10

 -----------------------------------------------------------------------------------

   CUMULATIVE VOLUMES               L**3   RATES FOR THIS TIME STEP           L**3/T
   ------------------                      ------------------------

                                     IN                                         IN
                                     --                                         --
        PRECIPITATION =        3510173.01          PRECIPITATION =                  
           STREAMFLOW =                               STREAMFLOW =                  
     GW BOUNDARY FLOW =             17.49       GW BOUNDARY FLOW =              0.63


                                    OUT                                        OUT
                                    ---                                        ---
   EVAPOTRANSPIRATION =        1741176.98     EVAPOTRANSPIRATION =          25322.59
           STREAMFLOW =        1402010.42             STREAMFLOW =          11215.52
     GW BOUNDARY FLOW =           4769.90       GW BOUNDARY FLOW =             35.70

   INFLOWS - OUTFLOWS =         362233.20     INFLOWS - OUTFLOWS =         -36573.18
             --------                                   --------

 TOTAL STORAGE CHANGE =         364204.99         STORAGE CHANGE =         -36573.82
       --------------                             --------------
         LAND SURFACE =          90050.80           LAND SURFACE =         -12330.62
            SOIL ZONE =        2529867.40              SOIL ZONE =         -12529.98
     UNSATURATED ZONE =       -2942248.87       UNSATURATED ZONE =         -11786.28
       SATURATED ZONE =         686535.65         SATURATED ZONE =             73.06

 OVERALL BUDGET ERROR =          -1971.79           BUDGET ERROR =              0.64


  PERCENT DISCREPANCY =             -0.06    PERCENT DISCREPANCY =              0.00



1
 SUMMARY VOLUMETRIC BUDGET FOR GSFLOW 
 DATE: 02 17 1991              CUMULATIVE TIME STEP:      17
 MODFLOW STRESS PERIOD      6     CURRENT TIME STEP:     140     ITERATIONS:       5

 -----------------------------------------------------------------------------------

   CUMULATIVE VOLUMES               L**3   RATES FOR THIS TIME STEP           L**3/T
   ------------------                      ------------------------

                                     IN                                         IN
                                     --                                         --
        PRECIPITATION =        3510173.01          PRECIPITATION =                  
           STREAMFLOW =                               STREAMFLOW =                  
     GW BOUNDARY FLOW =             22.17       GW BOUNDARY FLOW =              0.70


                                    OUT                                        OUT
                                    ---                                        ---
   EVAPOTRANSPIRATION =        1981423.21     EVAPOTRANSPIRATION =          23106.93
           STREAMFLOW =        1484809.03             STREAMFLOW =          11909.18
     GW BOUNDARY FLOW =           5019.78       GW BOUNDARY FLOW =             35.67

   INFLOWS - OUTFLOWS =          38943.16     INFLOWS - OUTFLOWS =         -35051.09
             --------                                   --------

 TOTAL STORAGE CHANGE =          40969.46         STORAGE CHANGE =         -35037.58
       --------------                             --------------
         LAND SURFACE =          18163.74           LAND SURFACE =          -1654.25
            SOIL ZONE =        2364058.28              SOIL ZONE =         -21299.85
     UNSATURATED ZONE =       -3022223.96       UNSATURATED ZONE =         -11077.80
       SATURATED ZONE =         680971.41         SATURATED ZONE =          -1005.67

 OVERALL BUDGET ERROR =          -2026.30           BUDGET ERROR =            -13.51


  PERCENT DISCREPANCY =             -0.06    PERCENT DISCREPANCY =             -0.04



1
 SUMMARY VOLUMETRIC BUDGET FOR GSFLOW 
 DATE: 02 24 1991              CUMULATIVE TIME STEP:      24
 MODFLOW STRESS PERIOD      6     CURRENT TIME STEP:     147     ITERATIONS:       8

 -----------------------------------------------------------------------------------

   CUMULATIVE VOLUMES               L**3   RATES FOR THIS TIME STEP           L**3/T
   ------------------                      ------------------------

                                     IN                                         IN
                                     --                                         --
        PRECIPITATION =        3510173.01          PRECIPITATION =                  
           STREAMFLOW =                               STREAMFLOW =                  
     GW BOUNDARY FLOW =             27.32       GW BOUNDARY FLOW =              0.76


                                    OUT                                        OUT
                                    ---                                        ---
   EVAPOTRANSPIRATION =        2196808.63     EVAPOTRANSPIRATION =          21931.37
           STREAMFLOW =        1567374.96             STREAMFLOW =          11652.50
     GW BOUNDARY FLOW =           5268.79       GW BOUNDARY FLOW =             35.50

   INFLOWS - OUTFLOWS =        -259252.06     INFLOWS - OUTFLOWS =         -33618.61
             --------                                   --------

 TOTAL STORAGE CHANGE =        -257153.14         STORAGE CHANGE =         -33617.10
       --------------                             --------------
         LAND SURFACE =           6686.42           LAND SURFACE =           -239.07
            SOIL ZONE =        2161519.54              SOIL ZONE =         -21479.34
     UNSATURATED ZONE =       -3098117.34       UNSATURATED ZONE =         -10663.87
       SATURATED ZONE =         672758.24         SATURATED ZONE =          -1234.81

 OVERALL BUDGET ERROR =          -2098.92           BUDGET ERROR =             -1.51


  PERCENT DISCREPANCY =             -0.06    PERCENT DISCREPANCY =             -0.00



1
 SUMMARY VOLUMETRIC BUDGET FOR GSFLOW 
 DATE: 03 03 1991              CUMULATIVE TIME STEP:       3
 MODFLOW STRESS PERIOD      7     CURRENT TIME STEP:     154     ITERATIONS:       5

 -----------------------------------------------------------------------------------

   CUMULATIVE VOLUMES               L**3   RATES FOR THIS TIME STEP           L**3/T
   ------------------                      ------------------------

                                     IN                                         IN
                                     --                                         --
        PRECIPITATION =        6220189.63          PRECIPITATION =        1243187.24
           STREAMFLOW =                               STREAMFLOW =                  
     GW BOUNDARY FLOW =             32.92       GW BOUNDARY FLOW =              0.83


                                    OUT                                        OUT
                                    ---                                        ---
   EVAPOTRANSPIRATION =        2349223.12     EVAPOTRANSPIRATION =           7995.61
           STREAMFLOW =        1650299.98             STREAMFLOW =          11814.04
     GW BOUNDARY FLOW =           5516.63       GW BOUNDARY FLOW =             35.32

   INFLOWS - OUTFLOWS =        2215182.82     INFLOWS - OUTFLOWS =        1223343.10
             --------                                   --------

 TOTAL STORAGE CHANGE =        2217363.80         STORAGE CHANGE =        1223359.57
       --------------                             --------------
         LAND SURFACE =        2505892.53           LAND SURFACE =        1046737.06
            SOIL ZONE =        2223220.16              SOIL ZONE =         189218.21
     UNSATURATED ZONE =       -3171178.14       UNSATURATED ZONE =         -10270.75
       SATURATED ZONE =         659429.24         SATURATED ZONE =          -2324.95

 OVERALL BUDGET ERROR =          -2180.98           BUDGET ERROR =            -16.47


  PERCENT DISCREPANCY =             -0.04    PERCENT DISCREPANCY =             -0.00



1
 SUMMARY VOLUMETRIC BUDGET FOR GSFLOW 
 DATE: 03 10 1991              CUMULATIVE TIME STEP:      10
 MODFLOW STRESS PERIOD      7     CURRENT TIME STEP:     161     ITERATIONS:       5

 -----------------------------------------------------------------------------------

   CUMULATIVE VOLUMES               L**3   RATES FOR THIS TIME STEP           L**3/T
   ------------------                      ------------------------

                                     IN                                         IN
                                     --                                         --
        PRECIPITATION =        8746030.42          PRECIPITATION =          32888.55
           STREAMFLOW =                               STREAMFLOW =                  
     GW BOUNDARY FLOW =             38.96       GW BOUNDARY FLOW =              0.89


                                    OUT                                        OUT
                                    ---                                        ---
   EVAPOTRANSPIRATION =        2401936.27     EVAPOTRANSPIRATION =           6903.13
           STREAMFLOW =        1743413.76             STREAMFLOW =          12415.74
     GW BOUNDARY FLOW =           5763.73       GW BOUNDARY FLOW =             35.23

   INFLOWS - OUTFLOWS =        4594955.62     INFLOWS - OUTFLOWS =          13535.35
             --------                                   --------

 TOTAL STORAGE CHANGE =        4597234.12         STORAGE CHANGE =          13553.23
       --------------                             --------------
         LAND SURFACE =        3056677.02           LAND SURFACE =          -5526.40
            SOIL ZONE =        4105958.15              SOIL ZONE =          26163.99
     UNSATURATED ZONE =       -3210218.15       UNSATURATED ZONE =          -4726.46
       SATURATED ZONE =         644817.10         SATURATED ZONE =          -2357.90

 OVERALL BUDGET ERROR =          -2278.50           BUDGET ERROR =            -17.89


  PERCENT DISCREPANCY =             -0.03    PERCENT DISCREPANCY =             -0.05



1
 SUMMARY VOLUMETRIC BUDGET FOR GSFLOW 
 DATE: 03 17 1991              CUMULATIVE TIME STEP:      17
 MODFLOW STRESS PERIOD      7     CURRENT TIME STEP:     168     ITERATIONS:       5

 -----------------------------------------------------------------------------------

   CUMULATIVE VOLUMES               L**3   RATES FOR THIS TIME STEP           L**3/T
   ------------------                      ------------------------

                                     IN                                         IN
                                     --                                         --
        PRECIPITATION =        9897129.71          PRECIPITATION =         157865.04
           STREAMFLOW =                               STREAMFLOW =                  
     GW BOUNDARY FLOW =             45.43       GW BOUNDARY FLOW =              0.95


                                    OUT                                        OUT
                                    ---                                        ---
   EVAPOTRANSPIRATION =        2423364.82     EVAPOTRANSPIRATION =           6384.55
           STREAMFLOW =        1831463.33             STREAMFLOW =          12610.54
     GW BOUNDARY FLOW =           6009.86       GW BOUNDARY FLOW =             35.10

   INFLOWS - OUTFLOWS =        5636337.12     INFLOWS - OUTFLOWS =         138835.80
             --------                                   --------

 TOTAL STORAGE CHANGE =        5638725.88         STORAGE CHANGE =         138854.98
       --------------                             --------------
         LAND SURFACE =        4188230.79           LAND SURFACE =         152136.56
            SOIL ZONE =        4065875.88              SOIL ZONE =          -5564.12
     UNSATURATED ZONE =       -3243586.56       UNSATURATED ZONE =          -5016.33
       SATURATED ZONE =         628205.77         SATURATED ZONE =          -2701.13

 OVERALL BUDGET ERROR =          -2388.75           BUDGET ERROR =            -19.18


  PERCENT DISCREPANCY =             -0.02    PERCENT DISCREPANCY =             -0.01



1
 SUMMARY VOLUMETRIC BUDGET FOR GSFLOW 
 DATE: 03 24 1991              CUMULATIVE TIME STEP:      24
 MODFLOW STRESS PERIOD      7     CURRENT TIME STEP:     175     ITERATIONS:       5

 -----------------------------------------------------------------------------------

   CUMULATIVE VOLUMES               L**3   RATES FOR THIS TIME STEP           L**3/T
   ------------------                      ------------------------

                                     IN                                         IN
                                     --                                         --
        PRECIPITATION =        1.1673D+07          PRECIPITATION =        1230031.83
           STREAMFLOW =                               STREAMFLOW =                  
     GW BOUNDARY FLOW =             52.30       GW BOUNDARY FLOW =              1.01


                                    OUT                                        OUT
                                    ---                                        ---
   EVAPOTRANSPIRATION =        2454279.24     EVAPOTRANSPIRATION =           3635.81
           STREAMFLOW =        1920927.99             STREAMFLOW =          12899.76
     GW BOUNDARY FLOW =           6255.10       GW BOUNDARY FLOW =             34.98

   INFLOWS - OUTFLOWS =        7291701.46     INFLOWS - OUTFLOWS =        1213462.28
             --------                                   --------

 TOTAL STORAGE CHANGE =        7294216.15         STORAGE CHANGE =        1213481.97
       --------------                             --------------
         LAND SURFACE =        5933783.02           LAND SURFACE =        1227482.51
            SOIL ZONE =        4030253.04              SOIL ZONE =          -6061.51
     UNSATURATED ZONE =       -3278730.28       UNSATURATED ZONE =          -5083.72
       SATURATED ZONE =         608910.37         SATURATED ZONE =          -2855.31

 OVERALL BUDGET ERROR =          -2514.69           BUDGET ERROR =            -19.68


  PERCENT DISCREPANCY =             -0.02    PERCENT DISCREPANCY =             -0.00



1
 SUMMARY VOLUMETRIC BUDGET FOR GSFLOW 
 DATE: 03 31 1991              CUMULATIVE TIME STEP:      31
 MODFLOW STRESS PERIOD      7     CURRENT TIME STEP:     182     ITERATIONS:       6

 -----------------------------------------------------------------------------------

   CUMULATIVE VOLUMES               L**3   RATES FOR THIS TIME STEP           L**3/T
   ------------------                      ------------------------

                                     IN                                         IN
                                     --                                         --
        PRECIPITATION =        1.2495D+07          PRECIPITATION =                  
           STREAMFLOW =                               STREAMFLOW =                  
     GW BOUNDARY FLOW =             59.57       GW BOUNDARY FLOW =              1.06


                                    OUT                                        OUT
                                    ---                                        ---
   EVAPOTRANSPIRATION =        2560862.53     EVAPOTRANSPIRATION =          43707.21
           STREAMFLOW =        2013000.72             STREAMFLOW =          13562.52
     GW BOUNDARY FLOW =           6499.59       GW BOUNDARY FLOW =             34.89

   INFLOWS - OUTFLOWS =        7915022.01     INFLOWS - OUTFLOWS =         -57303.56
             --------                                   --------

 TOTAL STORAGE CHANGE =        7917669.13         STORAGE CHANGE =         -57293.54
       --------------                             --------------
         LAND SURFACE =        6553217.20           LAND SURFACE =        -112248.23
            SOIL ZONE =        4089490.84              SOIL ZONE =          62569.21
     UNSATURATED ZONE =       -3312922.87       UNSATURATED ZONE =          -4312.15
       SATURATED ZONE =         587883.96         SATURATED ZONE =          -3302.37

 OVERALL BUDGET ERROR =          -2647.11           BUDGET ERROR =            -10.01


  PERCENT DISCREPANCY =             -0.02    PERCENT DISCREPANCY =             -0.02



1
 SUMMARY VOLUMETRIC BUDGET FOR GSFLOW 
 DATE: 04 07 1991              CUMULATIVE TIME STEP:       7
 MODFLOW STRESS PERIOD      8     CURRENT TIME STEP:     189     ITERATIONS:       5

 -----------------------------------------------------------------------------------

   CUMULATIVE VOLUMES               L**3   RATES FOR THIS TIME STEP           L**3/T
   ------------------                      ------------------------

                                     IN                                         IN
                                     --                                         --
        PRECIPITATION =        1.3018D+07          PRECIPITATION =                  
           STREAMFLOW =                               STREAMFLOW =                  
     GW BOUNDARY FLOW =             67.21       GW BOUNDARY FLOW =              1.11


                                    OUT                                        OUT
                                    ---                                        ---
   EVAPOTRANSPIRATION =        2844235.61     EVAPOTRANSPIRATION =          13548.64
           STREAMFLOW =        2175856.43             STREAMFLOW =          29508.07
     GW BOUNDARY FLOW =           6744.69       GW BOUNDARY FLOW =             35.11

   INFLOWS - OUTFLOWS =        7990967.22     INFLOWS - OUTFLOWS =         -43090.71
             --------                                   --------

 TOTAL STORAGE CHANGE =        7993738.05         STORAGE CHANGE =         -43071.29
       --------------                             --------------
         LAND SURFACE =        5033071.34           LAND SURFACE =         -59134.98
            SOIL ZONE =        5695403.96              SOIL ZONE =          10570.06
     UNSATURATED ZONE =       -3302264.90       UNSATURATED ZONE =           7907.27
       SATURATED ZONE =         567527.65         SATURATED ZONE =          -2413.64

 OVERALL BUDGET ERROR =          -2770.83           BUDGET ERROR =            -19.42


  PERCENT DISCREPANCY =             -0.02    PERCENT DISCREPANCY =             -0.05



1
 SUMMARY VOLUMETRIC BUDGET FOR GSFLOW 
 DATE: 04 14 1991              CUMULATIVE TIME STEP:      14
 MODFLOW STRESS PERIOD      8     CURRENT TIME STEP:     196     ITERATIONS:       7

 -----------------------------------------------------------------------------------

   CUMULATIVE VOLUMES               L**3   RATES FOR THIS TIME STEP           L**3/T
   ------------------                      ------------------------

                                     IN                                         IN
                                     --                                         --
        PRECIPITATION =        1.3018D+07          PRECIPITATION =                  
           STREAMFLOW =                               STREAMFLOW =                  
     GW BOUNDARY FLOW =             75.19       GW BOUNDARY FLOW =              1.16


                                    OUT                                        OUT
                                    ---                                        ---
   EVAPOTRANSPIRATION =        3014158.12     EVAPOTRANSPIRATION =          38955.66
           STREAMFLOW =        2492141.01             STREAMFLOW =          58503.60
     GW BOUNDARY FLOW =           6991.58       GW BOUNDARY FLOW =             35.40

   INFLOWS - OUTFLOWS =        7504521.22     INFLOWS - OUTFLOWS =         -97493.51
             --------                                   --------

 TOTAL STORAGE CHANGE =        7507378.26         STORAGE CHANGE =         -97490.05
       --------------                             --------------
         LAND SURFACE =        4428670.44           LAND SURFACE =        -170838.53
            SOIL ZONE =        5771162.13              SOIL ZONE =          67264.97
     UNSATURATED ZONE =       -3245469.94       UNSATURATED ZONE =           7840.15
       SATURATED ZONE =         553015.62         SATURATED ZONE =          -1756.64

 OVERALL BUDGET ERROR =          -2857.04           BUDGET ERROR =             -3.45


  PERCENT DISCREPANCY =             -0.02    PERCENT DISCREPANCY =             -0.00



1
 SUMMARY VOLUMETRIC BUDGET FOR GSFLOW 
 DATE: 04 21 1991              CUMULATIVE TIME STEP:      21
 MODFLOW STRESS PERIOD      8     CURRENT TIME STEP:     203     ITERATIONS:      10

 -----------------------------------------------------------------------------------

   CUMULATIVE VOLUMES               L**3   RATES FOR THIS TIME STEP           L**3/T
   ------------------                      ------------------------

                                     IN                                         IN
                                     --                                         --
        PRECIPITATION =        1.3034D+07          PRECIPITATION =                  
           STREAMFLOW =                               STREAMFLOW =                  
     GW BOUNDARY FLOW =             83.49       GW BOUNDARY FLOW =              1.20


                                    OUT                                        OUT
                                    ---                                        ---
   EVAPOTRANSPIRATION =        3245959.97     EVAPOTRANSPIRATION =          43459.74
           STREAMFLOW =        2958733.06             STREAMFLOW =          78871.38
     GW BOUNDARY FLOW =           7239.63       GW BOUNDARY FLOW =             35.54

   INFLOWS - OUTFLOWS =        6822212.92     INFLOWS - OUTFLOWS =        -122365.45
             --------                                   --------

 TOTAL STORAGE CHANGE =        6825089.41         STORAGE CHANGE =        -122364.56
       --------------                             --------------
         LAND SURFACE =        3288381.99           LAND SURFACE =        -224119.74
            SOIL ZONE =        6178228.11              SOIL ZONE =          92304.56
     UNSATURATED ZONE =       -3184442.49       UNSATURATED ZONE =          10650.66
       SATURATED ZONE =         542921.81         SATURATED ZONE =          -1200.04

 OVERALL BUDGET ERROR =          -2876.49           BUDGET ERROR =             -0.89


  PERCENT DISCREPANCY =             -0.02    PERCENT DISCREPANCY =             -0.00



1
 SUMMARY VOLUMETRIC BUDGET FOR GSFLOW 
 DATE: 04 28 1991              CUMULATIVE TIME STEP:      28
 MODFLOW STRESS PERIOD      8     CURRENT TIME STEP:     210     ITERATIONS:       7

 -----------------------------------------------------------------------------------

   CUMULATIVE VOLUMES               L**3   RATES FOR THIS TIME STEP           L**3/T
   ------------------                      ------------------------

                                     IN                                         IN
                                     --                                         --
        PRECIPITATION =        1.3303D+07          PRECIPITATION =                  
           STREAMFLOW =                               STREAMFLOW =                  
     GW BOUNDARY FLOW =             92.06       GW BOUNDARY FLOW =              1.24


                                    OUT                                        OUT
                                    ---                                        ---
   EVAPOTRANSPIRATION =        3492918.03     EVAPOTRANSPIRATION =          55283.23
           STREAMFLOW =        3531042.18             STREAMFLOW =          84182.30
     GW BOUNDARY FLOW =           7488.16       GW BOUNDARY FLOW =             35.48

   INFLOWS - OUTFLOWS =        6272074.20     INFLOWS - OUTFLOWS =        -139499.77
             --------                                   --------

 TOTAL STORAGE CHANGE =        6274967.06         STORAGE CHANGE =        -139497.50
       --------------                             --------------
         LAND SURFACE =        2542972.48           LAND SURFACE =        -158428.10
            SOIL ZONE =        6300522.43              SOIL ZONE =           8650.39
     UNSATURATED ZONE =       -3104924.19       UNSATURATED ZONE =          11049.99
       SATURATED ZONE =         536396.35         SATURATED ZONE =           -769.77

 OVERALL BUDGET ERROR =          -2892.86           BUDGET ERROR =             -2.27


  PERCENT DISCREPANCY =             -0.02    PERCENT DISCREPANCY =             -0.00



1
 SUMMARY VOLUMETRIC BUDGET FOR GSFLOW 
 DATE: 05 05 1991              CUMULATIVE TIME STEP:       5
 MODFLOW STRESS PERIOD      9     CURRENT TIME STEP:     217     ITERATIONS:       6

 -----------------------------------------------------------------------------------

   CUMULATIVE VOLUMES               L**3   RATES FOR THIS TIME STEP           L**3/T
   ------------------                      ------------------------

                                     IN                                         IN
                                     --                                         --
        PRECIPITATION =        1.3510D+07          PRECIPITATION =                  
           STREAMFLOW =                               STREAMFLOW =                  
     GW BOUNDARY FLOW =            100.89       GW BOUNDARY FLOW =              1.28


                                    OUT                                        OUT
                                    ---                                        ---
   EVAPOTRANSPIRATION =        3841987.58     EVAPOTRANSPIRATION =          84817.23
           STREAMFLOW =        4079232.39             STREAMFLOW =          83934.62
     GW BOUNDARY FLOW =           7735.57       GW BOUNDARY FLOW =             35.34

   INFLOWS - OUTFLOWS =        5580853.48     INFLOWS - OUTFLOWS =        -168785.91
             --------                                   --------

 TOTAL STORAGE CHANGE =        5583765.90         STORAGE CHANGE =        -168783.69
       --------------                             --------------
         LAND SURFACE =        1737575.89           LAND SURFACE =        -184922.33
            SOIL ZONE =        6343667.46              SOIL ZONE =           5542.54
     UNSATURATED ZONE =       -3028752.72       UNSATURATED ZONE =          11070.76
       SATURATED ZONE =         531275.27         SATURATED ZONE =           -474.67

 OVERALL BUDGET ERROR =          -2912.42           BUDGET ERROR =             -2.22


  PERCENT DISCREPANCY =             -0.02    PERCENT DISCREPANCY =             -0.00



1
 SUMMARY VOLUMETRIC BUDGET FOR GSFLOW 
 DATE: 05 12 1991              CUMULATIVE TIME STEP:      12
 MODFLOW STRESS PERIOD      9     CURRENT TIME STEP:     224     ITERATIONS:      10

 -----------------------------------------------------------------------------------

   CUMULATIVE VOLUMES               L**3   RATES FOR THIS TIME STEP           L**3/T
   ------------------                      ------------------------

                                     IN                                         IN
                                     --                                         --
        PRECIPITATION =        1.4029D+07          PRECIPITATION =                  
           STREAMFLOW =                               STREAMFLOW =                  
     GW BOUNDARY FLOW =            109.99       GW BOUNDARY FLOW =              1.32


                                    OUT                                        OUT
                                    ---                                        ---
   EVAPOTRANSPIRATION =        4211916.54     EVAPOTRANSPIRATION =          62594.93
           STREAMFLOW =        4641749.96             STREAMFLOW =          90031.59
     GW BOUNDARY FLOW =           7981.91       GW BOUNDARY FLOW =             35.22

   INFLOWS - OUTFLOWS =        5167683.74     INFLOWS - OUTFLOWS =        -152660.42
             --------                                   --------

 TOTAL STORAGE CHANGE =        5170608.00         STORAGE CHANGE =        -152660.01
       --------------                             --------------
         LAND SURFACE =        1228262.74           LAND SURFACE =        -215603.20
            SOIL ZONE =        6368151.25              SOIL ZONE =          52663.84
     UNSATURATED ZONE =       -2955836.05       UNSATURATED ZONE =          10082.07
       SATURATED ZONE =         530030.06         SATURATED ZONE =            197.28

 OVERALL BUDGET ERROR =          -2924.26           BUDGET ERROR =             -0.41


  PERCENT DISCREPANCY =             -0.02    PERCENT DISCREPANCY =             -0.00



1
 SUMMARY VOLUMETRIC BUDGET FOR GSFLOW 
 DATE: 05 19 1991              CUMULATIVE TIME STEP:      19
 MODFLOW STRESS PERIOD      9     CURRENT TIME STEP:     231     ITERATIONS:       7

 -----------------------------------------------------------------------------------

   CUMULATIVE VOLUMES               L**3   RATES FOR THIS TIME STEP           L**3/T
   ------------------                      ------------------------

                                     IN                                         IN
                                     --                                         --
        PRECIPITATION =        1.4365D+07          PRECIPITATION =                  
           STREAMFLOW =                               STREAMFLOW =                  
     GW BOUNDARY FLOW =            119.35       GW BOUNDARY FLOW =              1.35


                                    OUT                                        OUT
                                    ---                                        ---
   EVAPOTRANSPIRATION =        4612025.38     EVAPOTRANSPIRATION =          17977.42
           STREAMFLOW =        5162327.34             STREAMFLOW =          62682.55
     GW BOUNDARY FLOW =           8226.54       GW BOUNDARY FLOW =             34.74

   INFLOWS - OUTFLOWS =        4582918.41     INFLOWS - OUTFLOWS =         -80693.35
             --------                                   --------

 TOTAL STORAGE CHANGE =        4585847.31         STORAGE CHANGE =         -80693.04
       --------------                             --------------
         LAND SURFACE =         710055.97           LAND SURFACE =         -20899.31
            SOIL ZONE =        6236233.08              SOIL ZONE =         -67907.59
     UNSATURATED ZONE =       -2889570.30       UNSATURATED ZONE =           8270.70
       SATURATED ZONE =         529128.57         SATURATED ZONE =           -156.84

 OVERALL BUDGET ERROR =          -2928.90           BUDGET ERROR =             -0.31


  PERCENT DISCREPANCY =             -0.02    PERCENT DISCREPANCY =             -0.00



1
 SUMMARY VOLUMETRIC BUDGET FOR GSFLOW 
 DATE: 05 26 1991              CUMULATIVE TIME STEP:      26
 MODFLOW STRESS PERIOD      9     CURRENT TIME STEP:     238     ITERATIONS:       7

 -----------------------------------------------------------------------------------

   CUMULATIVE VOLUMES               L**3   RATES FOR THIS TIME STEP           L**3/T
   ------------------                      ------------------------

                                     IN                                         IN
                                     --                                         --
        PRECIPITATION =        1.4426D+07          PRECIPITATION =                  
           STREAMFLOW =                               STREAMFLOW =                  
     GW BOUNDARY FLOW =            128.98       GW BOUNDARY FLOW =              1.39


                                    OUT                                        OUT
                                    ---                                        ---
   EVAPOTRANSPIRATION =        5259380.76     EVAPOTRANSPIRATION =          71093.69
           STREAMFLOW =        5533865.88             STREAMFLOW =          38234.55
     GW BOUNDARY FLOW =           8468.13       GW BOUNDARY FLOW =             34.24

   INFLOWS - OUTFLOWS =        3624911.83     INFLOWS - OUTFLOWS =        -109361.08
             --------                                   --------

 TOTAL STORAGE CHANGE =        3627842.10         STORAGE CHANGE =        -109360.96
       --------------                             --------------
         LAND SURFACE =         283723.71           LAND SURFACE =         -27810.11
            SOIL ZONE =        5661528.77              SOIL ZONE =         -84839.79
     UNSATURATED ZONE =       -2846860.81       UNSATURATED ZONE =           3367.44
       SATURATED ZONE =         529450.42         SATURATED ZONE =            -78.50

 OVERALL BUDGET ERROR =          -2930.28           BUDGET ERROR =             -0.13


  PERCENT DISCREPANCY =             -0.02    PERCENT DISCREPANCY =             -0.00



1
 SUMMARY VOLUMETRIC BUDGET FOR GSFLOW 
 DATE: 06 02 1991              CUMULATIVE TIME STEP:       2
 MODFLOW STRESS PERIOD     10     CURRENT TIME STEP:     245     ITERATIONS:       6

 -----------------------------------------------------------------------------------

   CUMULATIVE VOLUMES               L**3   RATES FOR THIS TIME STEP           L**3/T
   ------------------                      ------------------------

                                     IN                                         IN
                                     --                                         --
        PRECIPITATION =        1.4671D+07          PRECIPITATION =                  
           STREAMFLOW =                               STREAMFLOW =                  
     GW BOUNDARY FLOW =            138.89       GW BOUNDARY FLOW =              1.43


                                    OUT                                        OUT
                                    ---                                        ---
   EVAPOTRANSPIRATION =        5803849.59     EVAPOTRANSPIRATION =         119136.61
           STREAMFLOW =        5794331.68             STREAMFLOW =          31630.40
     GW BOUNDARY FLOW =           8707.03       GW BOUNDARY FLOW =             33.98

   INFLOWS - OUTFLOWS =        3064225.39     INFLOWS - OUTFLOWS =        -150799.55
             --------                                   --------

 TOTAL STORAGE CHANGE =        3067165.76         STORAGE CHANGE =        -150797.10
       --------------                             --------------
         LAND SURFACE =         133141.95           LAND SURFACE =         -21748.77
            SOIL ZONE =        5242463.43              SOIL ZONE =        -129179.90
     UNSATURATED ZONE =       -2835069.08       UNSATURATED ZONE =            814.32
       SATURATED ZONE =         526629.47         SATURATED ZONE =           -682.75

 OVERALL BUDGET ERROR =          -2940.37           BUDGET ERROR =             -2.45


  PERCENT DISCREPANCY =             -0.02    PERCENT DISCREPANCY =             -0.00



1
 SUMMARY VOLUMETRIC BUDGET FOR GSFLOW 
 DATE: 06 09 1991              CUMULATIVE TIME STEP:       9
 MODFLOW STRESS PERIOD     10     CURRENT TIME STEP:     252     ITERATIONS:       6

 -----------------------------------------------------------------------------------

   CUMULATIVE VOLUMES               L**3   RATES FOR THIS TIME STEP           L**3/T
   ------------------                      ------------------------

                                     IN                                         IN
                                     --                                         --
        PRECIPITATION =        1.4671D+07          PRECIPITATION =                  
           STREAMFLOW =                               STREAMFLOW =                  
     GW BOUNDARY FLOW =            149.09       GW BOUNDARY FLOW =              1.47


                                    OUT                                        OUT
                                    ---                                        ---
   EVAPOTRANSPIRATION =        6518608.91     EVAPOTRANSPIRATION =         166184.20
           STREAMFLOW =        5974147.24             STREAMFLOW =          21105.12
     GW BOUNDARY FLOW =           8943.53       GW BOUNDARY FLOW =             33.64

   INFLOWS - OUTFLOWS =        2169424.22     INFLOWS - OUTFLOWS =        -187321.49
             --------                                   --------

 TOTAL STORAGE CHANGE =        2172392.28         STORAGE CHANGE =        -187316.08
       --------------                             --------------
         LAND SURFACE =          42792.54           LAND SURFACE =         -14518.27
            SOIL ZONE =        4458211.16              SOIL ZONE =        -167905.61
     UNSATURATED ZONE =       -2847404.10       UNSATURATED ZONE =          -3500.53
       SATURATED ZONE =         518792.67         SATURATED ZONE =          -1391.66

 OVERALL BUDGET ERROR =          -2968.06           BUDGET ERROR =             -5.41


  PERCENT DISCREPANCY =             -0.02    PERCENT DISCREPANCY =             -0.00



1
 SUMMARY VOLUMETRIC BUDGET FOR GSFLOW 
 DATE: 06 16 1991              CUMULATIVE TIME STEP:      16
 MODFLOW STRESS PERIOD     10     CURRENT TIME STEP:     259     ITERATIONS:       6

 -----------------------------------------------------------------------------------

   CUMULATIVE VOLUMES               L**3   RATES FOR THIS TIME STEP           L**3/T
   ------------------                      ------------------------

                                     IN                                         IN
                                     --                                         --
        PRECIPITATION =        1.4671D+07          PRECIPITATION =                  
           STREAMFLOW =                               STREAMFLOW =                  
     GW BOUNDARY FLOW =            159.57       GW BOUNDARY FLOW =              1.51


                                    OUT                                        OUT
                                    ---                                        ---
   EVAPOTRANSPIRATION =        7475919.90     EVAPOTRANSPIRATION =         108228.12
           STREAMFLOW =        6098219.74             STREAMFLOW =          16881.15
     GW BOUNDARY FLOW =           9177.88       GW BOUNDARY FLOW =             33.40

   INFLOWS - OUTFLOWS =        1087816.84     INFLOWS - OUTFLOWS =        -125141.16
             --------                                   --------

 TOTAL STORAGE CHANGE =        1090844.04         STORAGE CHANGE =        -125131.71
       --------------                             --------------
         LAND SURFACE =           5456.07           LAND SURFACE =          -1579.06
            SOIL ZONE =        3484057.79              SOIL ZONE =        -109210.86
     UNSATURATED ZONE =       -2901447.87       UNSATURATED ZONE =         -11348.55
       SATURATED ZONE =         502778.05         SATURATED ZONE =          -2993.23

 OVERALL BUDGET ERROR =          -3027.20           BUDGET ERROR =             -9.45


  PERCENT DISCREPANCY =             -0.02    PERCENT DISCREPANCY =             -0.01



1
 SUMMARY VOLUMETRIC BUDGET FOR GSFLOW 
 DATE: 06 23 1991              CUMULATIVE TIME STEP:      23
 MODFLOW STRESS PERIOD     10     CURRENT TIME STEP:     266     ITERATIONS:       6

 -----------------------------------------------------------------------------------

   CUMULATIVE VOLUMES               L**3   RATES FOR THIS TIME STEP           L**3/T
   ------------------                      ------------------------

                                     IN                                         IN
                                     --                                         --
        PRECIPITATION =        1.4671D+07          PRECIPITATION =                  
           STREAMFLOW =                               STREAMFLOW =                  
     GW BOUNDARY FLOW =            170.23       GW BOUNDARY FLOW =              1.50


                                    OUT                                        OUT
                                    ---                                        ---
   EVAPOTRANSPIRATION =        7954479.66     EVAPOTRANSPIRATION =          34404.10
           STREAMFLOW =        6212099.30             STREAMFLOW =          16013.40
     GW BOUNDARY FLOW =           9410.99       GW BOUNDARY FLOW =             33.24

   INFLOWS - OUTFLOWS =         495155.09     INFLOWS - OUTFLOWS =         -50449.23
             --------                                   --------

 TOTAL STORAGE CHANGE =         498241.67         STORAGE CHANGE =         -50438.91
       --------------                             --------------
         LAND SURFACE =           1456.34           LAND SURFACE =           -205.23
            SOIL ZONE =        3004334.57              SOIL ZONE =         -36120.66
     UNSATURATED ZONE =       -2983663.16       UNSATURATED ZONE =          -9901.25
       SATURATED ZONE =         476113.92         SATURATED ZONE =          -4211.76

 OVERALL BUDGET ERROR =          -3086.58           BUDGET ERROR =            -10.32


  PERCENT DISCREPANCY =             -0.02    PERCENT DISCREPANCY =             -0.02



1
 SUMMARY VOLUMETRIC BUDGET FOR GSFLOW 
 DATE: 06 30 1991              CUMULATIVE TIME STEP:      30
 MODFLOW STRESS PERIOD     10     CURRENT TIME STEP:     273     ITERATIONS:       6

 -----------------------------------------------------------------------------------

   CUMULATIVE VOLUMES               L**3   RATES FOR THIS TIME STEP           L**3/T
   ------------------                      ------------------------

                                     IN                                         IN
[...]
   EVAPOTRANSPIRATION =        7.3181D+07     EVAPOTRANSPIRATION =          82824.09
           STREAMFLOW =        6.7820D+07             STREAMFLOW =           5327.15
     GW BOUNDARY FLOW =          51193.99       GW BOUNDARY FLOW =             24.92

   INFLOWS - OUTFLOWS =       -7538162.51     INFLOWS - OUTFLOWS =         -88172.99
             --------                                   --------

 TOTAL STORAGE CHANGE =       -1.0131D+07         STORAGE CHANGE =         -96425.29
       --------------                             --------------
         LAND SURFACE =         396765.16           LAND SURFACE =         -19619.57
            SOIL ZONE =        2489981.67              SOIL ZONE =         -63137.47
     UNSATURATED ZONE =          91034.40       UNSATURATED ZONE =         -10183.27
       SATURATED ZONE =       -1.3109D+07         SATURATED ZONE =          -3484.97

 OVERALL BUDGET ERROR =        2593245.69           BUDGET ERROR =           8252.30

  ***WARNING, FLUX RATES OFF > 3%

  PERCENT DISCREPANCY =              1.82    PERCENT DISCREPANCY =              8.94



1
 SUMMARY VOLUMETRIC BUDGET FOR GSFLOW 
 DATE: 09 03 1995              CUMULATIVE TIME STEP:       3
 MODFLOW STRESS PERIOD     61     CURRENT TIME STEP:    1799     ITERATIONS:       7

 -----------------------------------------------------------------------------------

   CUMULATIVE VOLUMES               L**3   RATES FOR THIS TIME STEP           L**3/T
   ------------------                      ------------------------

                                     IN                                         IN
                                     --                                         --
        PRECIPITATION =        1.3351D+08          PRECIPITATION =                  
           STREAMFLOW =                               STREAMFLOW =                  
     GW BOUNDARY FLOW =           5422.61       GW BOUNDARY FLOW =              3.29


                                    OUT                                        OUT
                                    ---                                        ---
   EVAPOTRANSPIRATION =        7.3742D+07     EVAPOTRANSPIRATION =          75593.62
           STREAMFLOW =        6.7877D+07             STREAMFLOW =          12355.19
     GW BOUNDARY FLOW =          51368.83       GW BOUNDARY FLOW =             25.08

   INFLOWS - OUTFLOWS =       -8156830.88     INFLOWS - OUTFLOWS =         -87970.61
             --------                                   --------

 TOTAL STORAGE CHANGE =       -1.0783D+07         STORAGE CHANGE =         -87979.21
       --------------                             --------------
         LAND SURFACE =         275471.38           LAND SURFACE =         -15477.21
            SOIL ZONE =        2063446.45              SOIL ZONE =         -57028.88
     UNSATURATED ZONE =          19894.23       UNSATURATED ZONE =         -10250.95
       SATURATED ZONE =       -1.3142D+07         SATURATED ZONE =          -5222.17

 OVERALL BUDGET ERROR =        2626063.67           BUDGET ERROR =              8.59


  PERCENT DISCREPANCY =              1.84    PERCENT DISCREPANCY =              0.01



1
 SUMMARY VOLUMETRIC BUDGET FOR GSFLOW 
 DATE: 09 10 1995              CUMULATIVE TIME STEP:      10
 MODFLOW STRESS PERIOD     61     CURRENT TIME STEP:    1806     ITERATIONS:       6

 -----------------------------------------------------------------------------------

   CUMULATIVE VOLUMES               L**3   RATES FOR THIS TIME STEP           L**3/T
   ------------------                      ------------------------

                                     IN                                         IN
                                     --                                         --
        PRECIPITATION =        1.3351D+08          PRECIPITATION =                  
           STREAMFLOW =                               STREAMFLOW =                  
     GW BOUNDARY FLOW =           5446.04       GW BOUNDARY FLOW =              3.39


                                    OUT                                        OUT
                                    ---                                        ---
   EVAPOTRANSPIRATION =        7.4170D+07     EVAPOTRANSPIRATION =          57302.62
           STREAMFLOW =        6.7961D+07             STREAMFLOW =          11674.22
     GW BOUNDARY FLOW =          51544.20       GW BOUNDARY FLOW =             25.03

   INFLOWS - OUTFLOWS =       -8667890.87     INFLOWS - OUTFLOWS =         -68998.47
             --------                                   --------

 TOTAL STORAGE CHANGE =       -1.1294D+07         STORAGE CHANGE =         -69012.67
       --------------                             --------------
         LAND SURFACE =         195534.25           LAND SURFACE =          -9902.88
            SOIL ZONE =        1739130.12              SOIL ZONE =         -43455.71
     UNSATURATED ZONE =         -50545.81       UNSATURATED ZONE =          -9947.08
       SATURATED ZONE =       -1.3178D+07         SATURATED ZONE =          -5707.00

 OVERALL BUDGET ERROR =        2626128.97           BUDGET ERROR =             14.19


  PERCENT DISCREPANCY =              1.83    PERCENT DISCREPANCY =              0.02



1
 SUMMARY VOLUMETRIC BUDGET FOR GSFLOW 
 DATE: 09 17 1995              CUMULATIVE TIME STEP:      17
 MODFLOW STRESS PERIOD     61     CURRENT TIME STEP:    1813     ITERATIONS:       7

 -----------------------------------------------------------------------------------

   CUMULATIVE VOLUMES               L**3   RATES FOR THIS TIME STEP           L**3/T
   ------------------                      ------------------------

                                     IN                                         IN
                                     --                                         --
        PRECIPITATION =        1.3351D+08          PRECIPITATION =                  
           STREAMFLOW =                               STREAMFLOW =                  
     GW BOUNDARY FLOW =           5470.20       GW BOUNDARY FLOW =              3.49


                                    OUT                                        OUT
                                    ---                                        ---
   EVAPOTRANSPIRATION =        7.4637D+07     EVAPOTRANSPIRATION =          53881.59
           STREAMFLOW =        6.8038D+07             STREAMFLOW =          10892.99
     GW BOUNDARY FLOW =          51719.16       GW BOUNDARY FLOW =             24.97

   INFLOWS - OUTFLOWS =       -9212609.47     INFLOWS - OUTFLOWS =         -64796.06
             --------                                   --------

 TOTAL STORAGE CHANGE =       -1.1839D+07         STORAGE CHANGE =         -64801.44
       --------------                             --------------
         LAND SURFACE =         125688.76           LAND SURFACE =          -7368.86
            SOIL ZONE =        1387057.30              SOIL ZONE =         -41112.28
     UNSATURATED ZONE =        -120317.87       UNSATURATED ZONE =          -9395.52
       SATURATED ZONE =       -1.3231D+07         SATURATED ZONE =          -6924.79

 OVERALL BUDGET ERROR =        2626184.59           BUDGET ERROR =              5.39


  PERCENT DISCREPANCY =              1.82    PERCENT DISCREPANCY =              0.01



1
 SUMMARY VOLUMETRIC BUDGET FOR GSFLOW 
 DATE: 09 24 1995              CUMULATIVE TIME STEP:      24
 MODFLOW STRESS PERIOD     61     CURRENT TIME STEP:    1820     ITERATIONS:       6

 -----------------------------------------------------------------------------------

   CUMULATIVE VOLUMES               L**3   RATES FOR THIS TIME STEP           L**3/T
   ------------------                      ------------------------

                                     IN                                         IN
                                     --                                         --
        PRECIPITATION =        1.3351D+08          PRECIPITATION =                  
           STREAMFLOW =                               STREAMFLOW =                  
     GW BOUNDARY FLOW =           5495.06       GW BOUNDARY FLOW =              3.59


                                    OUT                                        OUT
                                    ---                                        ---
   EVAPOTRANSPIRATION =        7.4975D+07     EVAPOTRANSPIRATION =          35132.51
           STREAMFLOW =        6.8113D+07             STREAMFLOW =          10645.13
     GW BOUNDARY FLOW =          51893.78       GW BOUNDARY FLOW =             24.93

   INFLOWS - OUTFLOWS =       -9626082.57     INFLOWS - OUTFLOWS =         -45798.99
             --------                                   --------

 TOTAL STORAGE CHANGE =       -1.2252D+07         STORAGE CHANGE =         -45806.99
       --------------                             --------------
         LAND SURFACE =          83575.75           LAND SURFACE =          -4151.84
            SOIL ZONE =        1131728.16              SOIL ZONE =         -26031.58
     UNSATURATED ZONE =        -185457.99       UNSATURATED ZONE =          -9029.78
       SATURATED ZONE =       -1.3282D+07         SATURATED ZONE =          -6593.80

 OVERALL BUDGET ERROR =        2626234.22           BUDGET ERROR =              8.00


  PERCENT DISCREPANCY =              1.82    PERCENT DISCREPANCY =              0.02



1
 SUMMARY VOLUMETRIC BUDGET FOR GSFLOW 
 DATE: 10 01 1995              CUMULATIVE TIME STEP:       1
 MODFLOW STRESS PERIOD     62     CURRENT TIME STEP:    1827     ITERATIONS:       7

 -----------------------------------------------------------------------------------

   CUMULATIVE VOLUMES               L**3   RATES FOR THIS TIME STEP           L**3/T
   ------------------                      ------------------------

                                     IN                                         IN
                                     --                                         --
        PRECIPITATION =        1.3351D+08          PRECIPITATION =                  
           STREAMFLOW =                               STREAMFLOW =                  
     GW BOUNDARY FLOW =           5520.57       GW BOUNDARY FLOW =              3.68


                                    OUT                                        OUT
                                    ---                                        ---
   EVAPOTRANSPIRATION =        7.5115D+07     EVAPOTRANSPIRATION =          20979.85
           STREAMFLOW =        6.8188D+07             STREAMFLOW =          10680.98
     GW BOUNDARY FLOW =          52068.24       GW BOUNDARY FLOW =             24.91

   INFLOWS - OUTFLOWS =       -9841148.79     INFLOWS - OUTFLOWS =         -31682.06
             --------                                   --------

 TOTAL STORAGE CHANGE =       -1.2467D+07         STORAGE CHANGE =         -31685.08
       --------------                             --------------
         LAND SURFACE =          66318.88           LAND SURFACE =          -2095.26
            SOIL ZONE =        1030869.18              SOIL ZONE =         -15360.88
     UNSATURATED ZONE =        -243559.07       UNSATURATED ZONE =          -8248.46
       SATURATED ZONE =       -1.3321D+07         SATURATED ZONE =          -5980.48

 OVERALL BUDGET ERROR =        2626270.48           BUDGET ERROR =              3.02


  PERCENT DISCREPANCY =              1.82    PERCENT DISCREPANCY =              0.01



1
 SUMMARY VOLUMETRIC BUDGET FOR GSFLOW 
 DATE: 10 08 1995              CUMULATIVE TIME STEP:       8
 MODFLOW STRESS PERIOD     62     CURRENT TIME STEP:    1834     ITERATIONS:       6

 -----------------------------------------------------------------------------------

   CUMULATIVE VOLUMES               L**3   RATES FOR THIS TIME STEP           L**3/T
   ------------------                      ------------------------

                                     IN                                         IN
                                     --                                         --
        PRECIPITATION =        1.3351D+08          PRECIPITATION =                  
           STREAMFLOW =                               STREAMFLOW =                  
     GW BOUNDARY FLOW =           5546.68       GW BOUNDARY FLOW =              3.77


                                    OUT                                        OUT
                                    ---                                        ---
   EVAPOTRANSPIRATION =        7.5277D+07     EVAPOTRANSPIRATION =          20226.12
           STREAMFLOW =        6.8262D+07             STREAMFLOW =          10450.85
     GW BOUNDARY FLOW =          52242.50       GW BOUNDARY FLOW =             24.89

   INFLOWS - OUTFLOWS =       -1.0077D+07     INFLOWS - OUTFLOWS =         -30698.09
             --------                                   --------

 TOTAL STORAGE CHANGE =       -1.2703D+07         STORAGE CHANGE =         -30702.73
       --------------                             --------------
         LAND SURFACE =          51558.66           LAND SURFACE =          -1742.43
            SOIL ZONE =         912978.46              SOIL ZONE =         -14504.64
     UNSATURATED ZONE =        -301386.74       UNSATURATED ZONE =          -8086.43
       SATURATED ZONE =       -1.3366D+07         SATURATED ZONE =          -6369.23

 OVERALL BUDGET ERROR =        2626303.63           BUDGET ERROR =              4.64


  PERCENT DISCREPANCY =              1.81    PERCENT DISCREPANCY =              0.02



1
 SUMMARY VOLUMETRIC BUDGET FOR GSFLOW 
 DATE: 10 15 1995              CUMULATIVE TIME STEP:      15
 MODFLOW STRESS PERIOD     62     CURRENT TIME STEP:    1841     ITERATIONS:       5

 -----------------------------------------------------------------------------------

   CUMULATIVE VOLUMES               L**3   RATES FOR THIS TIME STEP           L**3/T
   ------------------                      ------------------------

                                     IN                                         IN
                                     --                                         --
        PRECIPITATION =        1.3351D+08          PRECIPITATION =                  
           STREAMFLOW =                               STREAMFLOW =                  
     GW BOUNDARY FLOW =           5573.34       GW BOUNDARY FLOW =              3.84


                                    OUT                                        OUT
                                    ---                                        ---
   EVAPOTRANSPIRATION =        7.5435D+07     EVAPOTRANSPIRATION =          25082.70
           STREAMFLOW =        6.8333D+07             STREAMFLOW =          10121.79
     GW BOUNDARY FLOW =          52416.59       GW BOUNDARY FLOW =             24.86

   INFLOWS - OUTFLOWS =       -1.0306D+07     INFLOWS - OUTFLOWS =         -35225.51
             --------                                   --------

 TOTAL STORAGE CHANGE =       -1.2933D+07         STORAGE CHANGE =         -35231.74
       --------------                             --------------
         LAND SURFACE =          38802.94           LAND SURFACE =          -1819.31
            SOIL ZONE =         800850.92              SOIL ZONE =         -17706.68
     UNSATURATED ZONE =        -357028.13       UNSATURATED ZONE =          -8058.93
       SATURATED ZONE =       -1.3415D+07         SATURATED ZONE =          -7646.82

 OVERALL BUDGET ERROR =        2626336.30           BUDGET ERROR =              6.23


  PERCENT DISCREPANCY =              1.81    PERCENT DISCREPANCY =              0.02



1
 SUMMARY VOLUMETRIC BUDGET FOR GSFLOW 
 DATE: 10 22 1995              CUMULATIVE TIME STEP:      22
 MODFLOW STRESS PERIOD     62     CURRENT TIME STEP:    1848     ITERATIONS:       6

 -----------------------------------------------------------------------------------

   CUMULATIVE VOLUMES               L**3   RATES FOR THIS TIME STEP           L**3/T
   ------------------                      ------------------------

                                     IN                                         IN
                                     --                                         --
        PRECIPITATION =        1.3351D+08          PRECIPITATION =                  
           STREAMFLOW =                               STREAMFLOW =                  
     GW BOUNDARY FLOW =           5600.51       GW BOUNDARY FLOW =              3.91


                                    OUT                                        OUT
                                    ---                                        ---
   EVAPOTRANSPIRATION =        7.5575D+07     EVAPOTRANSPIRATION =           5870.09
           STREAMFLOW =        6.8404D+07             STREAMFLOW =          10358.75
     GW BOUNDARY FLOW =          52590.51       GW BOUNDARY FLOW =             24.85

   INFLOWS - OUTFLOWS =       -1.0518D+07     INFLOWS - OUTFLOWS =         -16249.78
             --------                                   --------

 TOTAL STORAGE CHANGE =       -1.3144D+07         STORAGE CHANGE =         -16251.87
       --------------                             --------------
         LAND SURFACE =          28999.83           LAND SURFACE =           -464.23
            SOIL ZONE =         703838.15              SOIL ZONE =          -3996.15
     UNSATURATED ZONE =        -410469.55       UNSATURATED ZONE =          -6656.18
       SATURATED ZONE =       -1.3467D+07         SATURATED ZONE =          -5135.31

 OVERALL BUDGET ERROR =        2626362.12           BUDGET ERROR =              2.10


  PERCENT DISCREPANCY =              1.81    PERCENT DISCREPANCY =              0.01



1
 SUMMARY VOLUMETRIC BUDGET FOR GSFLOW 
 DATE: 10 29 1995              CUMULATIVE TIME STEP:      29
 MODFLOW STRESS PERIOD     62     CURRENT TIME STEP:    1855     ITERATIONS:       8

 -----------------------------------------------------------------------------------

   CUMULATIVE VOLUMES               L**3   RATES FOR THIS TIME STEP           L**3/T
   ------------------                      ------------------------

                                     IN                                         IN
                                     --                                         --
        PRECIPITATION =        1.3351D+08          PRECIPITATION =                  
           STREAMFLOW =                               STREAMFLOW =                  
     GW BOUNDARY FLOW =           5628.24       GW BOUNDARY FLOW =              4.00


                                    OUT                                        OUT
                                    ---                                        ---
   EVAPOTRANSPIRATION =        7.5660D+07     EVAPOTRANSPIRATION =          14688.87
           STREAMFLOW =        6.8475D+07             STREAMFLOW =           9980.21
     GW BOUNDARY FLOW =          52763.91       GW BOUNDARY FLOW =             24.73

   INFLOWS - OUTFLOWS =       -1.0673D+07     INFLOWS - OUTFLOWS =         -24689.81
             --------                                   --------

 TOTAL STORAGE CHANGE =       -1.3300D+07         STORAGE CHANGE =         -24690.22
       --------------                             --------------
         LAND SURFACE =          24723.88           LAND SURFACE =           -960.36
            SOIL ZONE =         646488.40              SOIL ZONE =          -9645.45
     UNSATURATED ZONE =        -458833.66       UNSATURATED ZONE =          -6904.06
       SATURATED ZONE =       -1.3512D+07         SATURATED ZONE =          -7180.36

 OVERALL BUDGET ERROR =        2626370.52           BUDGET ERROR =              0.41


  PERCENT DISCREPANCY =              1.81    PERCENT DISCREPANCY =              0.00



