1
 SUMMARY VOLUMETRIC BUDGET FOR GSFLOW 
 DATE: 10 07 1990              CUMULATIVE TIME STEP:       7
 MODFLOW STRESS PERIOD      2     CURRENT TIME STEP:       7     ITERATIONS:       7

 -----------------------------------------------------------------------------------

   CUMULATIVE VOLUMES               L**3   RATES FOR THIS TIME STEP           L**3/T
   ------------------                      ------------------------

                                     IN                                         IN
                                     --                                         --
        PRECIPITATION =                            PRECIPITATION =                  
           STREAMFLOW =                               STREAMFLOW =                  
     GW BOUNDARY FLOW =                         GW BOUNDARY FLOW =                  


                                    OUT                                        OUT
                                    ---                                        ---
   EVAPOTRANSPIRATION =         381242.21     EVAPOTRANSPIRATION =          12556.47
           STREAMFLOW =          46416.71             STREAMFLOW =           8185.43
     GW BOUNDARY FLOW =            252.80       GW BOUNDARY FLOW =             36.30

   INFLOWS - OUTFLOWS =        -427911.73     INFLOWS - OUTFLOWS =         -20778.20
             --------                                   --------

 TOTAL STORAGE CHANGE =        -426450.73         STORAGE CHANGE =         -20749.96
       --------------                             --------------
         LAND SURFACE =                             LAND SURFACE =                  
            SOIL ZONE =         -33344.15              SOIL ZONE =          -1004.88
     UNSATURATED ZONE =        -499598.40       UNSATURATED ZONE =         -34029.42
       SATURATED ZONE =         106491.83         SATURATED ZONE =          14284.34

 OVERALL BUDGET ERROR =          -1460.99           BUDGET ERROR =            -28.24


  PERCENT DISCREPANCY =             -0.34    PERCENT DISCREPANCY =             -0.14



1
 SUMMARY VOLUMETRIC BUDGET FOR GSFLOW 
 DATE: 10 14 1990              CUMULATIVE TIME STEP:      14
 MODFLOW STRESS PERIOD      2     CURRENT TIME STEP:      14     ITERATIONS:       8

 -----------------------------------------------------------------------------------

   CUMULATIVE VOLUMES               L**3   RATES FOR THIS TIME STEP           L**3/T
   ------------------                      ------------------------

                                     IN                                         IN
                                     --                                         --
        PRECIPITATION =                            PRECIPITATION =                  
           STREAMFLOW =                               STREAMFLOW =                  
     GW BOUNDARY FLOW =                         GW BOUNDARY FLOW =                  


                                    OUT                                        OUT
                                    ---                                        ---
   EVAPOTRANSPIRATION =         659586.21     EVAPOTRANSPIRATION =          42743.02
           STREAMFLOW =         100743.84             STREAMFLOW =           7179.45
     GW BOUNDARY FLOW =            506.63       GW BOUNDARY FLOW =             36.23

   INFLOWS - OUTFLOWS =        -760836.68     INFLOWS - OUTFLOWS =         -49958.71
             --------                                   --------

 TOTAL STORAGE CHANGE =        -759085.75         STORAGE CHANGE =         -49936.15
       --------------                             --------------
         LAND SURFACE =                             LAND SURFACE =                  
            SOIL ZONE =         -58148.69              SOIL ZONE =          -4431.08
     UNSATURATED ZONE =        -873588.98       UNSATURATED ZONE =         -52603.32
       SATURATED ZONE =         172651.91         SATURATED ZONE =           7098.26

 OVERALL BUDGET ERROR =          -1750.93           BUDGET ERROR =            -22.56


  PERCENT DISCREPANCY =             -0.23    PERCENT DISCREPANCY =             -0.05



1
 SUMMARY VOLUMETRIC BUDGET FOR GSFLOW 
 DATE: 10 21 1990              CUMULATIVE TIME STEP:      21
 MODFLOW STRESS PERIOD      2     CURRENT TIME STEP:      21     ITERATIONS:       6

 -----------------------------------------------------------------------------------

   CUMULATIVE VOLUMES               L**3   RATES FOR THIS TIME STEP           L**3/T
   ------------------                      ------------------------

                                     IN                                         IN
                                     --                                         --
        PRECIPITATION =         188432.87          PRECIPITATION =                  
           STREAMFLOW =                               STREAMFLOW =                  
     GW BOUNDARY FLOW =                         GW BOUNDARY FLOW =                  


                                    OUT                                        OUT
                                    ---                                        ---
   EVAPOTRANSPIRATION =         801975.67     EVAPOTRANSPIRATION =          37120.38
           STREAMFLOW =         163690.77             STREAMFLOW =          10145.31
     GW BOUNDARY FLOW =            760.82       GW BOUNDARY FLOW =             36.37

   INFLOWS - OUTFLOWS =        -777994.39     INFLOWS - OUTFLOWS =         -47302.07
             --------                                   --------

 TOTAL STORAGE CHANGE =        -777106.20         STORAGE CHANGE =         -47306.54
       --------------                             --------------
         LAND SURFACE =          15977.62           LAND SURFACE =         -34861.64
            SOIL ZONE =          55626.88              SOIL ZONE =          -1275.20
     UNSATURATED ZONE =       -1085702.49       UNSATURATED ZONE =         -21899.62
       SATURATED ZONE =         236991.79         SATURATED ZONE =          10729.92

 OVERALL BUDGET ERROR =           -888.19           BUDGET ERROR =              4.47


  PERCENT DISCREPANCY =             -0.09    PERCENT DISCREPANCY =              0.01



1
 SUMMARY VOLUMETRIC BUDGET FOR GSFLOW 
 DATE: 10 28 1990              CUMULATIVE TIME STEP:      28
 MODFLOW STRESS PERIOD      2     CURRENT TIME STEP:      28     ITERATIONS:       7

 -----------------------------------------------------------------------------------

   CUMULATIVE VOLUMES               L**3   RATES FOR THIS TIME STEP           L**3/T
   ------------------                      ------------------------

                                     IN                                         IN
                                     --                                         --
        PRECIPITATION =         188432.87          PRECIPITATION =                  
           STREAMFLOW =                               STREAMFLOW =                  
     GW BOUNDARY FLOW =                         GW BOUNDARY FLOW =                  


                                    OUT                                        OUT
                                    ---                                        ---
   EVAPOTRANSPIRATION =         927429.03     EVAPOTRANSPIRATION =          11191.13
           STREAMFLOW =         225460.32             STREAMFLOW =           9010.91
     GW BOUNDARY FLOW =           1014.01       GW BOUNDARY FLOW =             36.13

   INFLOWS - OUTFLOWS =        -965470.50     INFLOWS - OUTFLOWS =         -20238.17
             --------                                   --------

 TOTAL STORAGE CHANGE =        -964414.75         STORAGE CHANGE =         -20207.81
       --------------                             --------------
         LAND SURFACE =                             LAND SURFACE =                  
            SOIL ZONE =          26434.26              SOIL ZONE =          -3303.39
     UNSATURATED ZONE =       -1270348.73       UNSATURATED ZONE =         -23186.38
       SATURATED ZONE =         279499.73         SATURATED ZONE =           6281.96

 OVERALL BUDGET ERROR =          -1055.75           BUDGET ERROR =            -30.35


  PERCENT DISCREPANCY =             -0.09    PERCENT DISCREPANCY =             -0.15



1
 SUMMARY VOLUMETRIC BUDGET FOR GSFLOW 
 DATE: 11 04 1990              CUMULATIVE TIME STEP:       4
 MODFLOW STRESS PERIOD      3     CURRENT TIME STEP:      35     ITERATIONS:       6

 -----------------------------------------------------------------------------------

   CUMULATIVE VOLUMES               L**3   RATES FOR THIS TIME STEP           L**3/T
   ------------------                      ------------------------

                                     IN                                         IN
                                     --                                         --
        PRECIPITATION =         703113.06          PRECIPITATION =                  
           STREAMFLOW =                               STREAMFLOW =                  
     GW BOUNDARY FLOW =                         GW BOUNDARY FLOW =                  


                                    OUT                                        OUT
                                    ---                                        ---
   EVAPOTRANSPIRATION =         987126.55     EVAPOTRANSPIRATION =          26063.10
           STREAMFLOW =         296751.00             STREAMFLOW =          10681.93
     GW BOUNDARY FLOW =           1267.08       GW BOUNDARY FLOW =             36.14

   INFLOWS - OUTFLOWS =        -582031.57     INFLOWS - OUTFLOWS =         -36781.16
             --------                                   --------

 TOTAL STORAGE CHANGE =        -584528.25         STORAGE CHANGE =         -37728.80
       --------------                             --------------
         LAND SURFACE =          71009.70           LAND SURFACE =         -84159.07
            SOIL ZONE =         420125.25              SOIL ZONE =          57101.01
     UNSATURATED ZONE =       -1416259.28       UNSATURATED ZONE =         -20123.69
       SATURATED ZONE =         340596.08         SATURATED ZONE =           9452.95

 OVERALL BUDGET ERROR =           2496.68           BUDGET ERROR =            947.64


  PERCENT DISCREPANCY =              0.19    PERCENT DISCREPANCY =              2.54



1
 SUMMARY VOLUMETRIC BUDGET FOR GSFLOW 
 DATE: 11 11 1990              CUMULATIVE TIME STEP:      11
 MODFLOW STRESS PERIOD      3     CURRENT TIME STEP:      42     ITERATIONS:       6

 -----------------------------------------------------------------------------------

   CUMULATIVE VOLUMES               L**3   RATES FOR THIS TIME STEP           L**3/T
   ------------------                      ------------------------

                                     IN                                         IN
                                     --                                         --
        PRECIPITATION =         703113.06          PRECIPITATION =                  
           STREAMFLOW =                               STREAMFLOW =                  
     GW BOUNDARY FLOW =                         GW BOUNDARY FLOW =                  


                                    OUT                                        OUT
                                    ---                                        ---
   EVAPOTRANSPIRATION =        1060537.22     EVAPOTRANSPIRATION =          12411.55
           STREAMFLOW =         368022.42             STREAMFLOW =           9677.24
     GW BOUNDARY FLOW =           1519.19       GW BOUNDARY FLOW =             35.93

   INFLOWS - OUTFLOWS =        -726965.76     INFLOWS - OUTFLOWS =         -22124.71
             --------                                   --------

 TOTAL STORAGE CHANGE =        -729486.46         STORAGE CHANGE =         -22067.05
       --------------                             --------------
         LAND SURFACE =            295.92           LAND SURFACE =           -859.89
            SOIL ZONE =         436370.48              SOIL ZONE =          -6133.07
     UNSATURATED ZONE =       -1556444.03       UNSATURATED ZONE =         -20019.98
       SATURATED ZONE =         390291.18         SATURATED ZONE =           4945.89

 OVERALL BUDGET ERROR =           2520.70           BUDGET ERROR =            -57.67


  PERCENT DISCREPANCY =              0.18    PERCENT DISCREPANCY =             -0.26



1
 SUMMARY VOLUMETRIC BUDGET FOR GSFLOW 
 DATE: 11 18 1990              CUMULATIVE TIME STEP:      18
 MODFLOW STRESS PERIOD      3     CURRENT TIME STEP:      49     ITERATIONS:       6

 -----------------------------------------------------------------------------------

   CUMULATIVE VOLUMES               L**3   RATES FOR THIS TIME STEP           L**3/T
   ------------------                      ------------------------

                                     IN                                         IN
                                     --                                         --
        PRECIPITATION =         747883.35          PRECIPITATION =                  
           STREAMFLOW =                               STREAMFLOW =                  
     GW BOUNDARY FLOW =                         GW BOUNDARY FLOW =                  


                                    OUT                                        OUT
                                    ---                                        ---
   EVAPOTRANSPIRATION =        1130234.55     EVAPOTRANSPIRATION =           5431.87
           STREAMFLOW =         440063.45             STREAMFLOW =          10719.02
     GW BOUNDARY FLOW =           1770.51       GW BOUNDARY FLOW =             35.88

   INFLOWS - OUTFLOWS =        -824185.15     INFLOWS - OUTFLOWS =         -16186.77
             --------                                   --------

 TOTAL STORAGE CHANGE =        -826446.52         STORAGE CHANGE =         -16190.39
       --------------                             --------------
         LAND SURFACE =          10077.61           LAND SURFACE =          -4199.79
            SOIL ZONE =         418428.66              SOIL ZONE =           -688.52
     UNSATURATED ZONE =       -1690335.83       UNSATURATED ZONE =         -18690.40
       SATURATED ZONE =         435383.04         SATURATED ZONE =           7388.31

 OVERALL BUDGET ERROR =           2261.37           BUDGET ERROR =              3.62


  PERCENT DISCREPANCY =              0.14    PERCENT DISCREPANCY =              0.02



1
 SUMMARY VOLUMETRIC BUDGET FOR GSFLOW 
 DATE: 11 25 1990              CUMULATIVE TIME STEP:      25
 MODFLOW STRESS PERIOD      3     CURRENT TIME STEP:      56     ITERATIONS:       6

 -----------------------------------------------------------------------------------

   CUMULATIVE VOLUMES               L**3   RATES FOR THIS TIME STEP           L**3/T
   ------------------                      ------------------------

                                     IN                                         IN
                                     --                                         --
        PRECIPITATION =        1009043.38          PRECIPITATION =         186542.88
           STREAMFLOW =                               STREAMFLOW =                  
     GW BOUNDARY FLOW =                         GW BOUNDARY FLOW =                  


                                    OUT                                        OUT
                                    ---                                        ---
   EVAPOTRANSPIRATION =        1190995.33     EVAPOTRANSPIRATION =           3839.71
           STREAMFLOW =         516289.78             STREAMFLOW =          10921.41
     GW BOUNDARY FLOW =           2021.46       GW BOUNDARY FLOW =             35.79

   INFLOWS - OUTFLOWS =        -700263.20     INFLOWS - OUTFLOWS =         171745.96
             --------                                   --------

 TOTAL STORAGE CHANGE =        -704220.99         STORAGE CHANGE =         170293.81
       --------------                             --------------
         LAND SURFACE =          92124.67           LAND SURFACE =          75233.82
            SOIL ZONE =         536810.07              SOIL ZONE =         106647.64
     UNSATURATED ZONE =       -1818430.18       UNSATURATED ZONE =         -17982.63
       SATURATED ZONE =         485274.46         SATURATED ZONE =           6394.98

 OVERALL BUDGET ERROR =           3957.79           BUDGET ERROR =           1452.16


  PERCENT DISCREPANCY =              0.23    PERCENT DISCREPANCY =              0.78



1
 SUMMARY VOLUMETRIC BUDGET FOR GSFLOW 
 DATE: 12 02 1990              CUMULATIVE TIME STEP:       2
 MODFLOW STRESS PERIOD      4     CURRENT TIME STEP:      63     ITERATIONS:       6

 -----------------------------------------------------------------------------------

   CUMULATIVE VOLUMES               L**3   RATES FOR THIS TIME STEP           L**3/T
   ------------------                      ------------------------

                                     IN                                         IN
                                     --                                         --
        PRECIPITATION =        1449284.55          PRECIPITATION =                  
           STREAMFLOW =                               STREAMFLOW =                  
     GW BOUNDARY FLOW =                         GW BOUNDARY FLOW =                  


                                    OUT                                        OUT
                                    ---                                        ---
   EVAPOTRANSPIRATION =        1198564.41     EVAPOTRANSPIRATION =            374.89
           STREAMFLOW =         593758.69             STREAMFLOW =          11107.09
     GW BOUNDARY FLOW =           2271.96       GW BOUNDARY FLOW =             35.77

   INFLOWS - OUTFLOWS =        -345310.50     INFLOWS - OUTFLOWS =         -11517.75
             --------                                   --------

 TOTAL STORAGE CHANGE =        -350007.06         STORAGE CHANGE =         -11519.63
       --------------                             --------------
         LAND SURFACE =         493448.43           LAND SURFACE =           -453.37
            SOIL ZONE =         567725.42              SOIL ZONE =            126.32
     UNSATURATED ZONE =       -1941707.66       UNSATURATED ZONE =         -17317.95
       SATURATED ZONE =         530526.75         SATURATED ZONE =           6125.37

 OVERALL BUDGET ERROR =           4696.56           BUDGET ERROR =              1.88


  PERCENT DISCREPANCY =              0.26    PERCENT DISCREPANCY =              0.02



1
 SUMMARY VOLUMETRIC BUDGET FOR GSFLOW 
 DATE: 12 09 1990              CUMULATIVE TIME STEP:       9
 MODFLOW STRESS PERIOD      4     CURRENT TIME STEP:      70     ITERATIONS:       6

 -----------------------------------------------------------------------------------

   CUMULATIVE VOLUMES               L**3   RATES FOR THIS TIME STEP           L**3/T
   ------------------                      ------------------------

                                     IN                                         IN
                                     --                                         --
        PRECIPITATION =        1449284.55          PRECIPITATION =                  
           STREAMFLOW =                               STREAMFLOW =                  
     GW BOUNDARY FLOW =                         GW BOUNDARY FLOW =                  


                                    OUT                                        OUT
                                    ---                                        ---
   EVAPOTRANSPIRATION =        1277066.89     EVAPOTRANSPIRATION =          14149.66
           STREAMFLOW =         671735.62             STREAMFLOW =          10942.38
     GW BOUNDARY FLOW =           2521.92       GW BOUNDARY FLOW =             35.65

   INFLOWS - OUTFLOWS =        -502039.88     INFLOWS - OUTFLOWS =         -25127.69
             --------                                   --------

 TOTAL STORAGE CHANGE =        -510007.89         STORAGE CHANGE =         -25228.72
       --------------                             --------------
         LAND SURFACE =          66382.65           LAND SURFACE =         -46525.52
            SOIL ZONE =         916352.25              SOIL ZONE =          33948.29
     UNSATURATED ZONE =       -2059931.54       UNSATURATED ZONE =         -16537.96
       SATURATED ZONE =         567188.75         SATURATED ZONE =           3886.47

 OVERALL BUDGET ERROR =           7968.01           BUDGET ERROR =            101.02


  PERCENT DISCREPANCY =              0.41    PERCENT DISCREPANCY =              0.40



1
 SUMMARY VOLUMETRIC BUDGET FOR GSFLOW 
 DATE: 12 16 1990              CUMULATIVE TIME STEP:      16
 MODFLOW STRESS PERIOD      4     CURRENT TIME STEP:      77     ITERATIONS:       6

 -----------------------------------------------------------------------------------

   CUMULATIVE VOLUMES               L**3   RATES FOR THIS TIME STEP           L**3/T
   ------------------                      ------------------------

                                     IN                                         IN
                                     --                                         --
        PRECIPITATION =        1804962.84          PRECIPITATION =                  
           STREAMFLOW =                               STREAMFLOW =                  
     GW BOUNDARY FLOW =                         GW BOUNDARY FLOW =                  


                                    OUT                                        OUT
                                    ---                                        ---
   EVAPOTRANSPIRATION =        1305693.25     EVAPOTRANSPIRATION =                  
           STREAMFLOW =         751684.85             STREAMFLOW =          11549.27
     GW BOUNDARY FLOW =           2771.34       GW BOUNDARY FLOW =             35.61

   INFLOWS - OUTFLOWS =        -255186.61     INFLOWS - OUTFLOWS =         -11584.88
             --------                                   --------

 TOTAL STORAGE CHANGE =        -264799.79         STORAGE CHANGE =         -11585.45
       --------------                             --------------
         LAND SURFACE =         256077.35           LAND SURFACE =                  
            SOIL ZONE =        1054694.13              SOIL ZONE =            -21.82
     UNSATURATED ZONE =       -2173651.22       UNSATURATED ZONE =         -15995.46
       SATURATED ZONE =         598079.95         SATURATED ZONE =           4431.83

 OVERALL BUDGET ERROR =           9613.19           BUDGET ERROR =              0.57


  PERCENT DISCREPANCY =              0.47    PERCENT DISCREPANCY =              0.00



1
 SUMMARY VOLUMETRIC BUDGET FOR GSFLOW 
 DATE: 12 23 1990              CUMULATIVE TIME STEP:      23
 MODFLOW STRESS PERIOD      4     CURRENT TIME STEP:      84     ITERATIONS:       6

 -----------------------------------------------------------------------------------

   CUMULATIVE VOLUMES               L**3   RATES FOR THIS TIME STEP           L**3/T
   ------------------                      ------------------------

                                     IN                                         IN
                                     --                                         --
        PRECIPITATION =        2276236.55          PRECIPITATION =                  
           STREAMFLOW =                               STREAMFLOW =                  
     GW BOUNDARY FLOW =              0.08       GW BOUNDARY FLOW =              0.04


                                    OUT                                        OUT
                                    ---                                        ---
   EVAPOTRANSPIRATION =        1307067.90     EVAPOTRANSPIRATION =                  
           STREAMFLOW =         832715.80             STREAMFLOW =          11597.19
     GW BOUNDARY FLOW =           3020.38       GW BOUNDARY FLOW =             35.57

   INFLOWS - OUTFLOWS =         133432.54     INFLOWS - OUTFLOWS =         -11632.72
             --------                                   --------

 TOTAL STORAGE CHANGE =         123818.63         STORAGE CHANGE =         -11632.43
       --------------                             --------------
         LAND SURFACE =         725980.65           LAND SURFACE =                  
            SOIL ZONE =        1054880.72              SOIL ZONE =             55.68
     UNSATURATED ZONE =       -2283168.01       UNSATURATED ZONE =         -15398.62
       SATURATED ZONE =         626125.28         SATURATED ZONE =           3710.51

 OVERALL BUDGET ERROR =           9613.91           BUDGET ERROR =             -0.29


  PERCENT DISCREPANCY =              0.42    PERCENT DISCREPANCY =             -0.00



1
 SUMMARY VOLUMETRIC BUDGET FOR GSFLOW 
 DATE: 12 30 1990              CUMULATIVE TIME STEP:      30
 MODFLOW STRESS PERIOD      4     CURRENT TIME STEP:      91     ITERATIONS:       5

 -----------------------------------------------------------------------------------

   CUMULATIVE VOLUMES               L**3   RATES FOR THIS TIME STEP           L**3/T
   ------------------                      ------------------------

                                     IN                                         IN
                                     --                                         --
        PRECIPITATION =        2276236.55          PRECIPITATION =                  
           STREAMFLOW =                               STREAMFLOW =                  
     GW BOUNDARY FLOW =              0.77       GW BOUNDARY FLOW =              0.14


                                    OUT                                        OUT
                                    ---                                        ---
   EVAPOTRANSPIRATION =        1307820.55     EVAPOTRANSPIRATION =                  
           STREAMFLOW =         914133.22             STREAMFLOW =          11658.15
     GW BOUNDARY FLOW =           3269.49       GW BOUNDARY FLOW =             35.60

   INFLOWS - OUTFLOWS =          51014.06     INFLOWS - OUTFLOWS =         -11693.60
             --------                                   --------

 TOTAL STORAGE CHANGE =          41410.05         STORAGE CHANGE =         -11691.24
       --------------                             --------------
         LAND SURFACE =         725228.16           LAND SURFACE =                  
            SOIL ZONE =        1055463.94              SOIL ZONE =            101.69
     UNSATURATED ZONE =       -2388792.74       UNSATURATED ZONE =         -14857.00
       SATURATED ZONE =         649510.70         SATURATED ZONE =           3064.07

 OVERALL BUDGET ERROR =           9604.01           BUDGET ERROR =             -2.36


  PERCENT DISCREPANCY =              0.42    PERCENT DISCREPANCY =             -0.02



1
 SUMMARY VOLUMETRIC BUDGET FOR GSFLOW 
 DATE: 01 06 1991              CUMULATIVE TIME STEP:       6
 MODFLOW STRESS PERIOD      5     CURRENT TIME STEP:      98     ITERATIONS:       5

 -----------------------------------------------------------------------------------

   CUMULATIVE VOLUMES               L**3   RATES FOR THIS TIME STEP           L**3/T
   ------------------                      ------------------------

                                     IN                                         IN
                                     --                                         --
        PRECIPITATION =        2276236.55          PRECIPITATION =                  
           STREAMFLOW =                               STREAMFLOW =                  
     GW BOUNDARY FLOW =              2.09       GW BOUNDARY FLOW =              0.22


                                    OUT                                        OUT
                                    ---                                        ---
   EVAPOTRANSPIRATION =        1331098.23     EVAPOTRANSPIRATION =           2584.60
           STREAMFLOW =         996163.44             STREAMFLOW =          11757.25
     GW BOUNDARY FLOW =           3519.38       GW BOUNDARY FLOW =             35.75

   INFLOWS - OUTFLOWS =         -54542.40     INFLOWS - OUTFLOWS =         -14377.38
             --------                                   --------

 TOTAL STORAGE CHANGE =         -65877.67         STORAGE CHANGE =         -14463.76
       --------------                             --------------
         LAND SURFACE =         620283.29           LAND SURFACE =          -6112.33
            SOIL ZONE =        1136077.57              SOIL ZONE =           3532.39
     UNSATURATED ZONE =       -2490455.70       UNSATURATED ZONE =         -14286.11
       SATURATED ZONE =         668217.17         SATURATED ZONE =           2402.29

 OVERALL BUDGET ERROR =          11335.26           BUDGET ERROR =             86.38


  PERCENT DISCREPANCY =              0.49    PERCENT DISCREPANCY =              0.60



1
 SUMMARY VOLUMETRIC BUDGET FOR GSFLOW 
 DATE: 01 13 1991              CUMULATIVE TIME STEP:      13
 MODFLOW STRESS PERIOD      5     CURRENT TIME STEP:     105     ITERATIONS:       6

 -----------------------------------------------------------------------------------

   CUMULATIVE VOLUMES               L**3   RATES FOR THIS TIME STEP           L**3/T
   ------------------                      ------------------------

                                     IN                                         IN
                                     --                                         --
        PRECIPITATION =        2596386.94          PRECIPITATION =          10327.43
           STREAMFLOW =                               STREAMFLOW =                  
     GW BOUNDARY FLOW =              4.01       GW BOUNDARY FLOW =              0.31


                                    OUT                                        OUT
                                    ---                                        ---
   EVAPOTRANSPIRATION =        1391689.00     EVAPOTRANSPIRATION =          17398.97
           STREAMFLOW =        1078672.11             STREAMFLOW =          11797.28
     GW BOUNDARY FLOW =           3769.61       GW BOUNDARY FLOW =             35.73

   INFLOWS - OUTFLOWS =         122260.23     INFLOWS - OUTFLOWS =         -18904.23
             --------                                   --------

 TOTAL STORAGE CHANGE =         107302.46         STORAGE CHANGE =         -19886.66
       --------------                             --------------
         LAND SURFACE =         586364.85           LAND SURFACE =        -135127.18
            SOIL ZONE =        1427616.71              SOIL ZONE =         127839.79
     UNSATURATED ZONE =       -2588071.31       UNSATURATED ZONE =         -13753.04
       SATURATED ZONE =         681392.22         SATURATED ZONE =           1153.77

 OVERALL BUDGET ERROR =          14957.76           BUDGET ERROR =            982.43

  ***WARNING, FLUX RATES OFF > 3%

  PERCENT DISCREPANCY =              0.58    PERCENT DISCREPANCY =              3.31



1
 SUMMARY VOLUMETRIC BUDGET FOR GSFLOW 
 DATE: 01 20 1991              CUMULATIVE TIME STEP:      20
 MODFLOW STRESS PERIOD      5     CURRENT TIME STEP:     112     ITERATIONS:       5

 -----------------------------------------------------------------------------------

   CUMULATIVE VOLUMES               L**3   RATES FOR THIS TIME STEP           L**3/T
   ------------------                      ------------------------

                                     IN                                         IN
                                     --                                         --
        PRECIPITATION =        2596386.94          PRECIPITATION =                  
           STREAMFLOW =                               STREAMFLOW =                  
     GW BOUNDARY FLOW =              6.54       GW BOUNDARY FLOW =              0.40


                                    OUT                                        OUT
                                    ---                                        ---
   EVAPOTRANSPIRATION =        1462399.25     EVAPOTRANSPIRATION =           1894.75
           STREAMFLOW =        1162176.08             STREAMFLOW =          11930.45
     GW BOUNDARY FLOW =           4019.84       GW BOUNDARY FLOW =             35.75

   INFLOWS - OUTFLOWS =         -32201.69     INFLOWS - OUTFLOWS =         -13860.55
             --------                                   --------

 TOTAL STORAGE CHANGE =         -47919.76         STORAGE CHANGE =         -13852.09
       --------------                             --------------
         LAND SURFACE =         422210.58           LAND SURFACE =           -295.67
            SOIL ZONE =        1520684.07              SOIL ZONE =          -1555.88
     UNSATURATED ZONE =       -2681792.24       UNSATURATED ZONE =         -13163.51
       SATURATED ZONE =         690977.83         SATURATED ZONE =           1162.98

 OVERALL BUDGET ERROR =          15718.08           BUDGET ERROR =             -8.46


  PERCENT DISCREPANCY =              0.60    PERCENT DISCREPANCY =             -0.06



1
 SUMMARY VOLUMETRIC BUDGET FOR GSFLOW 
 DATE: 01 27 1991              CUMULATIVE TIME STEP:      27
 MODFLOW STRESS PERIOD      5     CURRENT TIME STEP:     119     ITERATIONS:       5

 -----------------------------------------------------------------------------------

   CUMULATIVE VOLUMES               L**3   RATES FOR THIS TIME STEP           L**3/T
   ------------------                      ------------------------

                                     IN                                         IN
                                     --                                         --
        PRECIPITATION =        2596386.94          PRECIPITATION =                  
           STREAMFLOW =                               STREAMFLOW =                  
     GW BOUNDARY FLOW =              9.65       GW BOUNDARY FLOW =              0.48


                                    OUT                                        OUT
                                    ---                                        ---
   EVAPOTRANSPIRATION =        1484474.36     EVAPOTRANSPIRATION =           1241.58
           STREAMFLOW =        1245650.48             STREAMFLOW =          11943.82
     GW BOUNDARY FLOW =           4270.01       GW BOUNDARY FLOW =             35.74

   INFLOWS - OUTFLOWS =        -137998.26     INFLOWS - OUTFLOWS =         -13220.66
             --------                                   --------

 TOTAL STORAGE CHANGE =        -153848.40         STORAGE CHANGE =         -13205.26
       --------------                             --------------
         LAND SURFACE =         394226.38           LAND SURFACE =           -109.80
            SOIL ZONE =        1527207.83              SOIL ZONE =          -1032.79
     UNSATURATED ZONE =       -2771983.71       UNSATURATED ZONE =         -12666.37
       SATURATED ZONE =         696701.10         SATURATED ZONE =            603.70

 OVERALL BUDGET ERROR =          15850.13           BUDGET ERROR =            -15.40


  PERCENT DISCREPANCY =              0.58    PERCENT DISCREPANCY =             -0.12



1
 SUMMARY VOLUMETRIC BUDGET FOR GSFLOW 
 DATE: 02 03 1991              CUMULATIVE TIME STEP:       3
 MODFLOW STRESS PERIOD      6     CURRENT TIME STEP:     126     ITERATIONS:       7

 -----------------------------------------------------------------------------------

   CUMULATIVE VOLUMES               L**3   RATES FOR THIS TIME STEP           L**3/T
   ------------------                      ------------------------

                                     IN                                         IN
                                     --                                         --
        PRECIPITATION =        3228422.31          PRECIPITATION =          30459.53
           STREAMFLOW =                               STREAMFLOW =                  
     GW BOUNDARY FLOW =             13.31       GW BOUNDARY FLOW =              0.55


                                    OUT                                        OUT
                                    ---                                        ---
   EVAPOTRANSPIRATION =        1586902.47     EVAPOTRANSPIRATION =          20521.46
           STREAMFLOW =        1329726.78             STREAMFLOW =          12175.18
     GW BOUNDARY FLOW =           4520.09       GW BOUNDARY FLOW =             35.73

   INFLOWS - OUTFLOWS =         307286.27     INFLOWS - OUTFLOWS =          -2272.28
             --------                                   --------

 TOTAL STORAGE CHANGE =         286338.82         STORAGE CHANGE =          -2434.56
       --------------                             --------------
         LAND SURFACE =         184727.70           LAND SURFACE =         -28670.24
            SOIL ZONE =        2261462.92              SOIL ZONE =          38306.62
     UNSATURATED ZONE =       -2858963.12       UNSATURATED ZONE =         -12277.65
       SATURATED ZONE =         699111.32         SATURATED ZONE =            206.71

 OVERALL BUDGET ERROR =          20947.45           BUDGET ERROR =            162.27


  PERCENT DISCREPANCY =              0.65    PERCENT DISCREPANCY =              0.49



1
 SUMMARY VOLUMETRIC BUDGET FOR GSFLOW 
 DATE: 02 10 1991              CUMULATIVE TIME STEP:      10
 MODFLOW STRESS PERIOD      6     CURRENT TIME STEP:     133     ITERATIONS:       5

 -----------------------------------------------------------------------------------

   CUMULATIVE VOLUMES               L**3   RATES FOR THIS TIME STEP           L**3/T
   ------------------                      ------------------------

                                     IN                                         IN
                                     --                                         --
        PRECIPITATION =        3510173.01          PRECIPITATION =                  
           STREAMFLOW =                               STREAMFLOW =                  
     GW BOUNDARY FLOW =             17.49       GW BOUNDARY FLOW =              0.63


                                    OUT                                        OUT
                                    ---                                        ---
   EVAPOTRANSPIRATION =        1753849.84     EVAPOTRANSPIRATION =          25867.74
           STREAMFLOW =        1415750.53             STREAMFLOW =          12210.09
     GW BOUNDARY FLOW =           4770.18       GW BOUNDARY FLOW =             35.72

   INFLOWS - OUTFLOWS =         335819.95     INFLOWS - OUTFLOWS =         -38112.93
             --------                                   --------

 TOTAL STORAGE CHANGE =         312782.83         STORAGE CHANGE =         -38047.37
       --------------                             --------------
         LAND SURFACE =          90050.80           LAND SURFACE =         -12330.62
            SOIL ZONE =        2467295.50              SOIL ZONE =         -13540.41
     UNSATURATED ZONE =       -2942512.31       UNSATURATED ZONE =         -11770.78
       SATURATED ZONE =         697948.85         SATURATED ZONE =           -405.56

 OVERALL BUDGET ERROR =          23037.12           BUDGET ERROR =            -65.55


  PERCENT DISCREPANCY =              0.66    PERCENT DISCREPANCY =             -0.17



1
 SUMMARY VOLUMETRIC BUDGET FOR GSFLOW 
 DATE: 02 17 1991              CUMULATIVE TIME STEP:      17
 MODFLOW STRESS PERIOD      6     CURRENT TIME STEP:     140     ITERATIONS:       6

 -----------------------------------------------------------------------------------

   CUMULATIVE VOLUMES               L**3   RATES FOR THIS TIME STEP           L**3/T
   ------------------                      ------------------------

                                     IN                                         IN
                                     --                                         --
        PRECIPITATION =        3510173.01          PRECIPITATION =                  
           STREAMFLOW =                               STREAMFLOW =                  
     GW BOUNDARY FLOW =             22.16       GW BOUNDARY FLOW =              0.70


                                    OUT                                        OUT
                                    ---                                        ---
   EVAPOTRANSPIRATION =        1997483.14     EVAPOTRANSPIRATION =          23271.15
           STREAMFLOW =        1499793.04             STREAMFLOW =          12068.06
     GW BOUNDARY FLOW =           5020.09       GW BOUNDARY FLOW =             35.68

   INFLOWS - OUTFLOWS =           7898.89     INFLOWS - OUTFLOWS =         -35374.19
             --------                                   --------

 TOTAL STORAGE CHANGE =         -14442.40         STORAGE CHANGE =         -35288.45
       --------------                             --------------
         LAND SURFACE =          18163.73           LAND SURFACE =          -1654.25
            SOIL ZONE =        2295835.84              SOIL ZONE =         -21646.10
     UNSATURATED ZONE =       -3022535.66       UNSATURATED ZONE =         -11126.76
       SATURATED ZONE =         694093.69         SATURATED ZONE =           -861.33

 OVERALL BUDGET ERROR =          22341.29           BUDGET ERROR =            -85.74


  PERCENT DISCREPANCY =              0.64    PERCENT DISCREPANCY =             -0.24



1
 SUMMARY VOLUMETRIC BUDGET FOR GSFLOW 
 DATE: 02 24 1991              CUMULATIVE TIME STEP:      24
 MODFLOW STRESS PERIOD      6     CURRENT TIME STEP:     147     ITERATIONS:       5

 -----------------------------------------------------------------------------------

   CUMULATIVE VOLUMES               L**3   RATES FOR THIS TIME STEP           L**3/T
   ------------------                      ------------------------

                                     IN                                         IN
                                     --                                         --
        PRECIPITATION =        3510173.01          PRECIPITATION =                  
           STREAMFLOW =                               STREAMFLOW =                  
     GW BOUNDARY FLOW =             27.30       GW BOUNDARY FLOW =              0.76


                                    OUT                                        OUT
                                    ---                                        ---
   EVAPOTRANSPIRATION =        2213755.64     EVAPOTRANSPIRATION =          21967.62
           STREAMFLOW =        1584001.54             STREAMFLOW =          11962.08
     GW BOUNDARY FLOW =           5269.02       GW BOUNDARY FLOW =             35.48

   INFLOWS - OUTFLOWS =        -292825.88     INFLOWS - OUTFLOWS =         -33964.42
             --------                                   --------

 TOTAL STORAGE CHANGE =        -314377.54         STORAGE CHANGE =         -33885.82
       --------------                             --------------
         LAND SURFACE =           6686.42           LAND SURFACE =           -239.07
            SOIL ZONE =        2092172.67              SOIL ZONE =         -21453.59
     UNSATURATED ZONE =       -3098703.05       UNSATURATED ZONE =         -10713.43
       SATURATED ZONE =         685466.42         SATURATED ZONE =          -1479.73

 OVERALL BUDGET ERROR =          21551.66           BUDGET ERROR =            -78.61


  PERCENT DISCREPANCY =              0.57    PERCENT DISCREPANCY =             -0.23



1
 SUMMARY VOLUMETRIC BUDGET FOR GSFLOW 
 DATE: 03 03 1991              CUMULATIVE TIME STEP:       3
 MODFLOW STRESS PERIOD      7     CURRENT TIME STEP:     154     ITERATIONS:       5

 -----------------------------------------------------------------------------------

   CUMULATIVE VOLUMES               L**3   RATES FOR THIS TIME STEP           L**3/T
   ------------------                      ------------------------

                                     IN                                         IN
                                     --                                         --
        PRECIPITATION =        6220189.63          PRECIPITATION =        1243187.24
           STREAMFLOW =                               STREAMFLOW =                  
     GW BOUNDARY FLOW =             32.91       GW BOUNDARY FLOW =              0.83


                                    OUT                                        OUT
                                    ---                                        ---
   EVAPOTRANSPIRATION =        2365855.38     EVAPOTRANSPIRATION =           7999.26
           STREAMFLOW =        1667445.54             STREAMFLOW =          12187.91
     GW BOUNDARY FLOW =           5516.71       GW BOUNDARY FLOW =             35.33

   INFLOWS - OUTFLOWS =        2181404.91     INFLOWS - OUTFLOWS =        1222965.57
             --------                                   --------

 TOTAL STORAGE CHANGE =        2155575.95         STORAGE CHANGE =        1218267.31
       --------------                             --------------
         LAND SURFACE =        2505892.53           LAND SURFACE =        1046737.06
            SOIL ZONE =        2150245.71              SOIL ZONE =         184135.18
     UNSATURATED ZONE =       -3171868.30       UNSATURATED ZONE =         -10295.76
       SATURATED ZONE =         671306.01         SATURATED ZONE =          -2309.16

 OVERALL BUDGET ERROR =          25828.96           BUDGET ERROR =           4698.26


  PERCENT DISCREPANCY =              0.42    PERCENT DISCREPANCY =              0.38



1
 SUMMARY VOLUMETRIC BUDGET FOR GSFLOW 
 DATE: 03 10 1991              CUMULATIVE TIME STEP:      10
 MODFLOW STRESS PERIOD      7     CURRENT TIME STEP:     161     ITERATIONS:       5

 -----------------------------------------------------------------------------------

   CUMULATIVE VOLUMES               L**3   RATES FOR THIS TIME STEP           L**3/T
   ------------------                      ------------------------

                                     IN                                         IN
                                     --                                         --
        PRECIPITATION =        8746030.42          PRECIPITATION =          32888.55
           STREAMFLOW =                               STREAMFLOW =                  
     GW BOUNDARY FLOW =             38.95       GW BOUNDARY FLOW =              0.89


                                    OUT                                        OUT
                                    ---                                        ---
   EVAPOTRANSPIRATION =        2418601.09     EVAPOTRANSPIRATION =           6928.61
           STREAMFLOW =        1803636.74             STREAMFLOW =          18675.35
     GW BOUNDARY FLOW =           5764.73       GW BOUNDARY FLOW =             35.36

   INFLOWS - OUTFLOWS =        4518066.80     INFLOWS - OUTFLOWS =           7250.12
             --------                                   --------

 TOTAL STORAGE CHANGE =        4469847.31         STORAGE CHANGE =           6664.90
       --------------                             --------------
         LAND SURFACE =        3056677.03           LAND SURFACE =          -5526.40
            SOIL ZONE =        3964617.39              SOIL ZONE =          19042.09
     UNSATURATED ZONE =       -3213924.53       UNSATURATED ZONE =          -5241.68
       SATURATED ZONE =         662477.42         SATURATED ZONE =          -1609.12

 OVERALL BUDGET ERROR =          48219.49           BUDGET ERROR =            585.22


  PERCENT DISCREPANCY =              0.55    PERCENT DISCREPANCY =              1.80



1
 SUMMARY VOLUMETRIC BUDGET FOR GSFLOW 
 DATE: 03 17 1991              CUMULATIVE TIME STEP:      17
 MODFLOW STRESS PERIOD      7     CURRENT TIME STEP:     168     ITERATIONS:       6

 -----------------------------------------------------------------------------------

   CUMULATIVE VOLUMES               L**3   RATES FOR THIS TIME STEP           L**3/T
   ------------------                      ------------------------

                                     IN                                         IN
                                     --                                         --
        PRECIPITATION =        9897129.71          PRECIPITATION =         157865.04
           STREAMFLOW =                               STREAMFLOW =                  
     GW BOUNDARY FLOW =             45.40       GW BOUNDARY FLOW =              0.95


                                    OUT                                        OUT
                                    ---                                        ---
   EVAPOTRANSPIRATION =        2440003.31     EVAPOTRANSPIRATION =           6374.58
           STREAMFLOW =        1926087.01             STREAMFLOW =          16958.05
     GW BOUNDARY FLOW =           6011.53       GW BOUNDARY FLOW =             35.18

   INFLOWS - OUTFLOWS =        5525073.26     INFLOWS - OUTFLOWS =         134498.18
             --------                                   --------

 TOTAL STORAGE CHANGE =        5477006.53         STORAGE CHANGE =         134532.61
       --------------                             --------------
         LAND SURFACE =        4188230.79           LAND SURFACE =         152136.56
            SOIL ZONE =        3890025.49              SOIL ZONE =          -9794.39
     UNSATURATED ZONE =       -3251213.57       UNSATURATED ZONE =          -5558.82
       SATURATED ZONE =         649963.81         SATURATED ZONE =          -2250.75

 OVERALL BUDGET ERROR =          48066.74           BUDGET ERROR =            -34.43


  PERCENT DISCREPANCY =              0.49    PERCENT DISCREPANCY =             -0.02



1
 SUMMARY VOLUMETRIC BUDGET FOR GSFLOW 
 DATE: 03 24 1991              CUMULATIVE TIME STEP:      24
 MODFLOW STRESS PERIOD      7     CURRENT TIME STEP:     175     ITERATIONS:       5

 -----------------------------------------------------------------------------------

   CUMULATIVE VOLUMES               L**3   RATES FOR THIS TIME STEP           L**3/T
   ------------------                      ------------------------

                                     IN                                         IN
                                     --                                         --
        PRECIPITATION =        1.1673D+07          PRECIPITATION =        1230031.83
           STREAMFLOW =                               STREAMFLOW =                  
     GW BOUNDARY FLOW =             52.26       GW BOUNDARY FLOW =              1.00


                                    OUT                                        OUT
                                    ---                                        ---
   EVAPOTRANSPIRATION =        2470867.52     EVAPOTRANSPIRATION =           3629.88
           STREAMFLOW =        2042831.18             STREAMFLOW =          16488.65
     GW BOUNDARY FLOW =           6257.16       GW BOUNDARY FLOW =             35.03

   INFLOWS - OUTFLOWS =        7153207.90     INFLOWS - OUTFLOWS =        1209879.28
             --------                                   --------

 TOTAL STORAGE CHANGE =        7105570.99         STORAGE CHANGE =        1210054.33
       --------------                             --------------
         LAND SURFACE =        5933783.02           LAND SURFACE =        1227482.51
            SOIL ZONE =        3828875.69              SOIL ZONE =          -9236.47
     UNSATURATED ZONE =       -3290431.09       UNSATURATED ZONE =          -5677.03
       SATURATED ZONE =         633343.37         SATURATED ZONE =          -2514.68

 OVERALL BUDGET ERROR =          47636.91           BUDGET ERROR =           -175.05


  PERCENT DISCREPANCY =              0.41    PERCENT DISCREPANCY =             -0.01



1
 SUMMARY VOLUMETRIC BUDGET FOR GSFLOW 
 DATE: 03 31 1991              CUMULATIVE TIME STEP:      31
 MODFLOW STRESS PERIOD      7     CURRENT TIME STEP:     182     ITERATIONS:       5

 -----------------------------------------------------------------------------------

   CUMULATIVE VOLUMES               L**3   RATES FOR THIS TIME STEP           L**3/T
   ------------------                      ------------------------

                                     IN                                         IN
                                     --                                         --
        PRECIPITATION =        1.2495D+07          PRECIPITATION =                  
           STREAMFLOW =                               STREAMFLOW =                  
     GW BOUNDARY FLOW =             59.52       GW BOUNDARY FLOW =              1.06


                                    OUT                                        OUT
                                    ---                                        ---
   EVAPOTRANSPIRATION =        2577409.08     EVAPOTRANSPIRATION =          43683.02
           STREAMFLOW =        2160967.52             STREAMFLOW =          19210.86
     GW BOUNDARY FLOW =           6501.90       GW BOUNDARY FLOW =             34.96

   INFLOWS - OUTFLOWS =        7750506.30     INFLOWS - OUTFLOWS =         -62927.77
             --------                                   --------

 TOTAL STORAGE CHANGE =        7701197.94         STORAGE CHANGE =         -64523.06
       --------------                             --------------
         LAND SURFACE =        6553217.20           LAND SURFACE =        -112248.22
            SOIL ZONE =        3862610.56              SOIL ZONE =          55697.41
     UNSATURATED ZONE =       -3328939.48       UNSATURATED ZONE =          -4968.41
       SATURATED ZONE =         614309.66         SATURATED ZONE =          -3003.84

 OVERALL BUDGET ERROR =          49308.36           BUDGET ERROR =           1595.28


  PERCENT DISCREPANCY =              0.40    PERCENT DISCREPANCY =              2.50



1
 SUMMARY VOLUMETRIC BUDGET FOR GSFLOW 
 DATE: 04 07 1991              CUMULATIVE TIME STEP:       7
 MODFLOW STRESS PERIOD      8     CURRENT TIME STEP:     189     ITERATIONS:       7

 -----------------------------------------------------------------------------------

   CUMULATIVE VOLUMES               L**3   RATES FOR THIS TIME STEP           L**3/T
   ------------------                      ------------------------

                                     IN                                         IN
                                     --                                         --
        PRECIPITATION =        1.3018D+07          PRECIPITATION =                  
           STREAMFLOW =                               STREAMFLOW =                  
     GW BOUNDARY FLOW =             67.15       GW BOUNDARY FLOW =              1.11


                                    OUT                                        OUT
                                    ---                                        ---
   EVAPOTRANSPIRATION =        2860752.15     EVAPOTRANSPIRATION =          13549.39
           STREAMFLOW =        2426715.49             STREAMFLOW =          53094.33
     GW BOUNDARY FLOW =           6748.50       GW BOUNDARY FLOW =             35.46

   INFLOWS - OUTFLOWS =        7723587.74     INFLOWS - OUTFLOWS =         -66678.07
             --------                                   --------

 TOTAL STORAGE CHANGE =        7653205.55         STORAGE CHANGE =         -66709.71
       --------------                             --------------
         LAND SURFACE =        5033740.13           LAND SURFACE =         -59134.98
            SOIL ZONE =        5346557.73              SOIL ZONE =         -12148.63
     UNSATURATED ZONE =       -3324532.25       UNSATURATED ZONE =           6680.82
       SATURATED ZONE =         597439.94         SATURATED ZONE =          -2106.91

 OVERALL BUDGET ERROR =          70382.19           BUDGET ERROR =             31.64


  PERCENT DISCREPANCY =              0.54    PERCENT DISCREPANCY =              0.05



1
 SUMMARY VOLUMETRIC BUDGET FOR GSFLOW 
 DATE: 04 14 1991              CUMULATIVE TIME STEP:      14
 MODFLOW STRESS PERIOD      8     CURRENT TIME STEP:     196     ITERATIONS:       7

 -----------------------------------------------------------------------------------

   CUMULATIVE VOLUMES               L**3   RATES FOR THIS TIME STEP           L**3/T
   ------------------                      ------------------------

                                     IN                                         IN
                                     --                                         --
        PRECIPITATION =        1.3018D+07          PRECIPITATION =                  
           STREAMFLOW =                               STREAMFLOW =                  
     GW BOUNDARY FLOW =             75.10       GW BOUNDARY FLOW =              1.16


                                    OUT                                        OUT
                                    ---                                        ---
   EVAPOTRANSPIRATION =        3030674.95     EVAPOTRANSPIRATION =          38955.66
           STREAMFLOW =        2845600.74             STREAMFLOW =          65015.43
     GW BOUNDARY FLOW =           6996.81       GW BOUNDARY FLOW =             35.49

   INFLOWS - OUTFLOWS =        7134539.33     INFLOWS - OUTFLOWS =        -104005.42
             --------                                   --------

 TOTAL STORAGE CHANGE =        7075963.39         STORAGE CHANGE =        -103260.63
       --------------                             --------------
         LAND SURFACE =        4429762.56           LAND SURFACE =        -170838.53
            SOIL ZONE =        5339744.95              SOIL ZONE =          63095.75
     UNSATURATED ZONE =       -3277462.30       UNSATURATED ZONE =           6463.33
       SATURATED ZONE =         583918.17         SATURATED ZONE =          -1981.19

 OVERALL BUDGET ERROR =          58575.94           BUDGET ERROR =           -744.79


  PERCENT DISCREPANCY =              0.45    PERCENT DISCREPANCY =             -0.72



1
 SUMMARY VOLUMETRIC BUDGET FOR GSFLOW 
 DATE: 04 21 1991              CUMULATIVE TIME STEP:      21
 MODFLOW STRESS PERIOD      8     CURRENT TIME STEP:     203     ITERATIONS:       7

 -----------------------------------------------------------------------------------

   CUMULATIVE VOLUMES               L**3   RATES FOR THIS TIME STEP           L**3/T
   ------------------                      ------------------------

                                     IN                                         IN
                                     --                                         --
        PRECIPITATION =        1.3034D+07          PRECIPITATION =                  
           STREAMFLOW =                               STREAMFLOW =                  
     GW BOUNDARY FLOW =             83.36       GW BOUNDARY FLOW =              1.20


                                    OUT                                        OUT
                                    ---                                        ---
   EVAPOTRANSPIRATION =        3262477.33     EVAPOTRANSPIRATION =          43460.05
           STREAMFLOW =        3357378.39             STREAMFLOW =          85792.17
     GW BOUNDARY FLOW =           7245.56       GW BOUNDARY FLOW =             35.66

   INFLOWS - OUTFLOWS =        6407044.18     INFLOWS - OUTFLOWS =        -129286.68
             --------                                   --------

 TOTAL STORAGE CHANGE =        6367144.89         STORAGE CHANGE =        -125863.57
       --------------                             --------------
         LAND SURFACE =        3339485.92           LAND SURFACE =        -212222.76
            SOIL ZONE =        5682296.52              SOIL ZONE =          78934.95
     UNSATURATED ZONE =       -3226873.92       UNSATURATED ZONE =           8949.25
       SATURATED ZONE =         572236.37         SATURATED ZONE =          -1525.01

 OVERALL BUDGET ERROR =          39899.29           BUDGET ERROR =          -3423.11


  PERCENT DISCREPANCY =              0.31    PERCENT DISCREPANCY =             -2.68



1
 SUMMARY VOLUMETRIC BUDGET FOR GSFLOW 
 DATE: 04 28 1991              CUMULATIVE TIME STEP:      28
 MODFLOW STRESS PERIOD      8     CURRENT TIME STEP:     210     ITERATIONS:       6

 -----------------------------------------------------------------------------------

   CUMULATIVE VOLUMES               L**3   RATES FOR THIS TIME STEP           L**3/T
   ------------------                      ------------------------

                                     IN                                         IN
                                     --                                         --
        PRECIPITATION =        1.3303D+07          PRECIPITATION =                  
           STREAMFLOW =                               STREAMFLOW =                  
     GW BOUNDARY FLOW =             91.89       GW BOUNDARY FLOW =              1.24


                                    OUT                                        OUT
                                    ---                                        ---
   EVAPOTRANSPIRATION =        3509435.39     EVAPOTRANSPIRATION =          55283.23
           STREAMFLOW =        3975409.46             STREAMFLOW =          85313.49
     GW BOUNDARY FLOW =           7494.93       GW BOUNDARY FLOW =             35.54

   INFLOWS - OUTFLOWS =        5811182.62     INFLOWS - OUTFLOWS =        -140631.02
             --------                                   --------

 TOTAL STORAGE CHANGE =        5813947.31         STORAGE CHANGE =        -133826.16
       --------------                             --------------
         LAND SURFACE =        2758651.59           LAND SURFACE =        -113752.45
            SOIL ZONE =        5654485.10              SOIL ZONE =         -27194.31
     UNSATURATED ZONE =       -3163402.35       UNSATURATED ZONE =           8273.12
       SATURATED ZONE =         564212.97         SATURATED ZONE =          -1152.53

 OVERALL BUDGET ERROR =          -2764.69           BUDGET ERROR =          -6804.86

  ***WARNING, FLUX RATES OFF > 3%

  PERCENT DISCREPANCY =             -0.02    PERCENT DISCREPANCY =             -4.96



1
 SUMMARY VOLUMETRIC BUDGET FOR GSFLOW 
 DATE: 05 05 1991              CUMULATIVE TIME STEP:       5
 MODFLOW STRESS PERIOD      9     CURRENT TIME STEP:     217     ITERATIONS:      81

 -----------------------------------------------------------------------------------

   CUMULATIVE VOLUMES               L**3   RATES FOR THIS TIME STEP           L**3/T
   ------------------                      ------------------------

                                     IN                                         IN
                                     --                                         --
        PRECIPITATION =        1.3510D+07          PRECIPITATION =                  
           STREAMFLOW =                               STREAMFLOW =                  
     GW BOUNDARY FLOW =            100.69       GW BOUNDARY FLOW =              1.27


                                    OUT                                        OUT
                                    ---                                        ---
   EVAPOTRANSPIRATION =        3858505.70     EVAPOTRANSPIRATION =          84817.55
           STREAMFLOW =        4536171.28             STREAMFLOW =          82052.79
     GW BOUNDARY FLOW =           7742.74       GW BOUNDARY FLOW =             35.36

   INFLOWS - OUTFLOWS =        5107389.10     INFLOWS - OUTFLOWS =        -166904.43
             --------                                   --------

 TOTAL STORAGE CHANGE =        5154522.57         STORAGE CHANGE =        -160791.17
       --------------                             --------------
         LAND SURFACE =        2105621.15           LAND SURFACE =        -166214.31
            SOIL ZONE =        5604437.80              SOIL ZONE =          -1046.88
     UNSATURATED ZONE =       -3110432.42       UNSATURATED ZONE =           6628.16
       SATURATED ZONE =         554896.04         SATURATED ZONE =           -158.13

 OVERALL BUDGET ERROR =         -47133.47           BUDGET ERROR =          -6113.26

  ***WARNING, FLUX RATES OFF > 3%

  PERCENT DISCREPANCY =             -0.35    PERCENT DISCREPANCY =             -3.73



1
 SUMMARY VOLUMETRIC BUDGET FOR GSFLOW 
 DATE: 05 12 1991              CUMULATIVE TIME STEP:      12
 MODFLOW STRESS PERIOD      9     CURRENT TIME STEP:     224     ITERATIONS:       6

 -----------------------------------------------------------------------------------

   CUMULATIVE VOLUMES               L**3   RATES FOR THIS TIME STEP           L**3/T
   ------------------                      ------------------------

                                     IN                                         IN
                                     --                                         --
        PRECIPITATION =        1.4029D+07          PRECIPITATION =                  
           STREAMFLOW =                               STREAMFLOW =                  
     GW BOUNDARY FLOW =            109.76       GW BOUNDARY FLOW =              1.31


                                    OUT                                        OUT
                                    ---                                        ---
   EVAPOTRANSPIRATION =        4228435.26     EVAPOTRANSPIRATION =          62594.93
           STREAMFLOW =        5086496.25             STREAMFLOW =          81211.30
     GW BOUNDARY FLOW =           7989.22       GW BOUNDARY FLOW =             35.17

   INFLOWS - OUTFLOWS =        4706411.18     INFLOWS - OUTFLOWS =        -143840.09
             --------                                   --------

 TOTAL STORAGE CHANGE =        4795395.67         STORAGE CHANGE =        -138451.73
       --------------                             --------------
         LAND SURFACE =        1671151.50           LAND SURFACE =        -195073.29
            SOIL ZONE =        5635953.00              SOIL ZONE =          50678.82
     UNSATURATED ZONE =       -3056180.46       UNSATURATED ZONE =           7469.23
       SATURATED ZONE =         544471.63         SATURATED ZONE =          -1526.50

 OVERALL BUDGET ERROR =         -88984.49           BUDGET ERROR =          -5388.35

  ***WARNING, FLUX RATES OFF > 3%

  PERCENT DISCREPANCY =             -0.63    PERCENT DISCREPANCY =             -3.82



1
 SUMMARY VOLUMETRIC BUDGET FOR GSFLOW 
 DATE: 05 19 1991              CUMULATIVE TIME STEP:      19
 MODFLOW STRESS PERIOD      9     CURRENT TIME STEP:     231     ITERATIONS:       6

 -----------------------------------------------------------------------------------

   CUMULATIVE VOLUMES               L**3   RATES FOR THIS TIME STEP           L**3/T
   ------------------                      ------------------------

                                     IN                                         IN
                                     --                                         --
        PRECIPITATION =        1.4365D+07          PRECIPITATION =                  
           STREAMFLOW =                               STREAMFLOW =                  
     GW BOUNDARY FLOW =            119.09       GW BOUNDARY FLOW =              1.35


                                    OUT                                        OUT
                                    ---                                        ---
   EVAPOTRANSPIRATION =        4628544.75     EVAPOTRANSPIRATION =          17977.42
           STREAMFLOW =        5632870.28             STREAMFLOW =          70462.98
     GW BOUNDARY FLOW =           8234.43       GW BOUNDARY FLOW =             34.86

   INFLOWS - OUTFLOWS =        4095847.95     INFLOWS - OUTFLOWS =         -88473.90
             --------                                   --------

 TOTAL STORAGE CHANGE =        4228672.18         STORAGE CHANGE =         -81595.59
       --------------                             --------------
         LAND SURFACE =        1131549.53           LAND SURFACE =         -21030.92
            SOIL ZONE =        5567136.06              SOIL ZONE =         -65308.83
     UNSATURATED ZONE =       -3002932.83       UNSATURATED ZONE =           6511.51
       SATURATED ZONE =         532919.42         SATURATED ZONE =          -1767.34

 OVERALL BUDGET ERROR =        -132824.23           BUDGET ERROR =          -6878.31

  ***WARNING, FLUX RATES OFF > 3%

  PERCENT DISCREPANCY =             -0.92    PERCENT DISCREPANCY =             -8.09



1
 SUMMARY VOLUMETRIC BUDGET FOR GSFLOW 
 DATE: 05 26 1991              CUMULATIVE TIME STEP:      26
 MODFLOW STRESS PERIOD      9     CURRENT TIME STEP:     238     ITERATIONS:       6

 -----------------------------------------------------------------------------------

   CUMULATIVE VOLUMES               L**3   RATES FOR THIS TIME STEP           L**3/T
   ------------------                      ------------------------

                                     IN                                         IN
                                     --                                         --
        PRECIPITATION =        1.4426D+07          PRECIPITATION =                  
           STREAMFLOW =                               STREAMFLOW =                  
     GW BOUNDARY FLOW =            128.69       GW BOUNDARY FLOW =              1.39


                                    OUT                                        OUT
                                    ---                                        ---
   EVAPOTRANSPIRATION =        5275900.84     EVAPOTRANSPIRATION =          71093.69
           STREAMFLOW =        6081267.99             STREAMFLOW =          51701.88
     GW BOUNDARY FLOW =           8477.12       GW BOUNDARY FLOW =             34.42

   INFLOWS - OUTFLOWS =        3060980.34     INFLOWS - OUTFLOWS =        -122828.60
             --------                                   --------

 TOTAL STORAGE CHANGE =        3233707.08         STORAGE CHANGE =        -118317.33
       --------------                             --------------
         LAND SURFACE =         596309.91           LAND SURFACE =         -39567.86
            SOIL ZONE =        5083001.29              SOIL ZONE =         -79898.36
     UNSATURATED ZONE =       -2965380.89       UNSATURATED ZONE =           3204.30
       SATURATED ZONE =         519776.76         SATURATED ZONE =          -2055.41

 OVERALL BUDGET ERROR =        -172726.74           BUDGET ERROR =          -4511.27

  ***WARNING, FLUX RATES OFF > 3%

  PERCENT DISCREPANCY =             -1.19    PERCENT DISCREPANCY =             -3.74



1
 SUMMARY VOLUMETRIC BUDGET FOR GSFLOW 
 DATE: 06 02 1991              CUMULATIVE TIME STEP:       2
 MODFLOW STRESS PERIOD     10     CURRENT TIME STEP:     245     ITERATIONS:       6

 -----------------------------------------------------------------------------------

   CUMULATIVE VOLUMES               L**3   RATES FOR THIS TIME STEP           L**3/T
   ------------------                      ------------------------

                                     IN                                         IN
                                     --                                         --
        PRECIPITATION =        1.4671D+07          PRECIPITATION =                  
           STREAMFLOW =                               STREAMFLOW =                  
     GW BOUNDARY FLOW =            138.57       GW BOUNDARY FLOW =              1.43


                                    OUT                                        OUT
                                    ---                                        ---
   EVAPOTRANSPIRATION =        5820849.58     EVAPOTRANSPIRATION =         119396.93
           STREAMFLOW =        6407454.31             STREAMFLOW =          42940.50
     GW BOUNDARY FLOW =           8716.86       GW BOUNDARY FLOW =             34.12

   INFLOWS - OUTFLOWS =        2434092.62     INFLOWS - OUTFLOWS =        -162370.12
             --------                                   --------

 TOTAL STORAGE CHANGE =        2631183.75         STORAGE CHANGE =        -158471.67
       --------------                             --------------
         LAND SURFACE =         342585.53           LAND SURFACE =         -44718.56
            SOIL ZONE =        4737119.58              SOIL ZONE =        -112584.70
     UNSATURATED ZONE =       -2952712.53       UNSATURATED ZONE =           1150.94
       SATURATED ZONE =         504191.17         SATURATED ZONE =          -2319.33

 OVERALL BUDGET ERROR =        -197091.13           BUDGET ERROR =          -3898.46


  PERCENT DISCREPANCY =             -1.33    PERCENT DISCREPANCY =             -2.43



1
 SUMMARY VOLUMETRIC BUDGET FOR GSFLOW 
 DATE: 06 09 1991              CUMULATIVE TIME STEP:       9
 MODFLOW STRESS PERIOD     10     CURRENT TIME STEP:     252     ITERATIONS:       6

 -----------------------------------------------------------------------------------

   CUMULATIVE VOLUMES               L**3   RATES FOR THIS TIME STEP           L**3/T
   ------------------                      ------------------------

                                     IN                                         IN
                                     --                                         --
        PRECIPITATION =        1.4671D+07          PRECIPITATION =                  
           STREAMFLOW =                               STREAMFLOW =                  
     GW BOUNDARY FLOW =            148.73       GW BOUNDARY FLOW =              1.47


                                    OUT                                        OUT
                                    ---                                        ---
   EVAPOTRANSPIRATION =        6537259.29     EVAPOTRANSPIRATION =         166531.68
           STREAMFLOW =        6648593.18             STREAMFLOW =          29279.99
     GW BOUNDARY FLOW =           8954.08       GW BOUNDARY FLOW =             33.73

   INFLOWS - OUTFLOWS =        1476316.98     INFLOWS - OUTFLOWS =        -195843.94
             --------                                   --------

 TOTAL STORAGE CHANGE =        1692097.19         STORAGE CHANGE =        -193338.90
       --------------                             --------------
         LAND SURFACE =         143816.54           LAND SURFACE =         -32280.14
            SOIL ZONE =        4022250.53              SOIL ZONE =        -155771.21
     UNSATURATED ZONE =       -2958568.92       UNSATURATED ZONE =          -2222.89
       SATURATED ZONE =         484599.04         SATURATED ZONE =          -3064.67

 OVERALL BUDGET ERROR =        -215780.21           BUDGET ERROR =          -2505.03


  PERCENT DISCREPANCY =             -1.46    PERCENT DISCREPANCY =             -1.29



1
 SUMMARY VOLUMETRIC BUDGET FOR GSFLOW 
 DATE: 06 16 1991              CUMULATIVE TIME STEP:      16
 MODFLOW STRESS PERIOD     10     CURRENT TIME STEP:     259     ITERATIONS:      11

 -----------------------------------------------------------------------------------

   CUMULATIVE VOLUMES               L**3   RATES FOR THIS TIME STEP           L**3/T
   ------------------                      ------------------------

                                     IN                                         IN
                                     --                                         --
        PRECIPITATION =        1.4671D+07          PRECIPITATION =                  
           STREAMFLOW =                               STREAMFLOW =                  
     GW BOUNDARY FLOW =            159.20       GW BOUNDARY FLOW =              1.51


                                    OUT                                        OUT
                                    ---                                        ---
   EVAPOTRANSPIRATION =        7496739.19     EVAPOTRANSPIRATION =         108533.14
           STREAMFLOW =        6797823.70             STREAMFLOW =          17445.33
     GW BOUNDARY FLOW =           9187.29       GW BOUNDARY FLOW =             33.17

   INFLOWS - OUTFLOWS =         367383.82     INFLOWS - OUTFLOWS =        -126010.13
             --------                                   --------

 TOTAL STORAGE CHANGE =         593997.48         STORAGE CHANGE =        -125103.19
       --------------                             --------------
         LAND SURFACE =          39366.58           LAND SURFACE =          -6891.90
            SOIL ZONE =        3099628.47              SOIL ZONE =        -104007.06
     UNSATURATED ZONE =       -3002576.57       UNSATURATED ZONE =          -9563.31
       SATURATED ZONE =         457579.00         SATURATED ZONE =          -4640.92

 OVERALL BUDGET ERROR =        -226613.66           BUDGET ERROR =           -906.94


  PERCENT DISCREPANCY =             -1.53    PERCENT DISCREPANCY =             -0.72



1
 SUMMARY VOLUMETRIC BUDGET FOR GSFLOW 
 DATE: 06 23 1991              CUMULATIVE TIME STEP:      23
 MODFLOW STRESS PERIOD     10     CURRENT TIME STEP:     266     ITERATIONS:      13

 -----------------------------------------------------------------------------------

   CUMULATIVE VOLUMES               L**3   RATES FOR THIS TIME STEP           L**3/T
   ------------------                      ------------------------

                                     IN                                         IN
                                     --                                         --
        PRECIPITATION =        1.4671D+07          PRECIPITATION =                  
           STREAMFLOW =                               STREAMFLOW =                  
     GW BOUNDARY FLOW =            169.97       GW BOUNDARY FLOW =              1.56


                                    OUT                                        OUT
                                    ---                                        ---
   EVAPOTRANSPIRATION =        7977287.73     EVAPOTRANSPIRATION =          34566.12
           STREAMFLOW =        6904851.16             STREAMFLOW =          15085.74
     GW BOUNDARY FLOW =           9418.57       GW BOUNDARY FLOW =             33.00

   INFLOWS - OUTFLOWS =        -220412.70     INFLOWS - OUTFLOWS =         -49683.31
             --------                                   --------

 TOTAL STORAGE CHANGE =           9449.59         STORAGE CHANGE =         -49281.88
       --------------                             --------------
         LAND SURFACE =          15690.55           LAND SURFACE =          -1540.41
            SOIL ZONE =        2646759.44              SOIL ZONE =         -33841.25
     UNSATURATED ZONE =       -3073907.12       UNSATURATED ZONE =          -8548.41
       SATURATED ZONE =         420906.72         SATURATED ZONE =          -5351.80

 OVERALL BUDGET ERROR =        -229862.28           BUDGET ERROR =           -401.43


  PERCENT DISCREPANCY =             -1.55    PERCENT DISCREPANCY =             -0.81



1
 SUMMARY VOLUMETRIC BUDGET FOR GSFLOW 
 DATE: 06 30 1991              CUMULATIVE TIME STEP:      30
 MODFLOW STRESS PERIOD     10     CURRENT TIME STEP:     273     ITERATIONS:       6

 -----------------------------------------------------------------------------------

   CUMULATIVE VOLUMES               L**3   RATES FOR THIS TIME STEP           L**3/T
[...]
                                    ---                                        ---
   EVAPOTRANSPIRATION =        7.3578D+07     EVAPOTRANSPIRATION =          85115.16
           STREAMFLOW =        7.4627D+07             STREAMFLOW =          11716.09
     GW BOUNDARY FLOW =          50997.67       GW BOUNDARY FLOW =             24.32

   INFLOWS - OUTFLOWS =       -1.4742D+07     INFLOWS - OUTFLOWS =         -96852.19
             --------                                   --------

 TOTAL STORAGE CHANGE =       -1.0497D+07         STORAGE CHANGE =         -97406.03
       --------------                             --------------
         LAND SURFACE =         518159.97           LAND SURFACE =         -24360.57
            SOIL ZONE =        2168456.80              SOIL ZONE =         -59082.16
     UNSATURATED ZONE =          43034.05       UNSATURATED ZONE =          -9169.81
       SATURATED ZONE =       -1.3227D+07         SATURATED ZONE =          -4793.49

 OVERALL BUDGET ERROR =       -4244669.32           BUDGET ERROR =            553.84


  PERCENT DISCREPANCY =             -2.90    PERCENT DISCREPANCY =              0.57



1
 SUMMARY VOLUMETRIC BUDGET FOR GSFLOW 
 DATE: 09 03 1995              CUMULATIVE TIME STEP:       3
 MODFLOW STRESS PERIOD     61     CURRENT TIME STEP:    1799     ITERATIONS:       9

 -----------------------------------------------------------------------------------

   CUMULATIVE VOLUMES               L**3   RATES FOR THIS TIME STEP           L**3/T
   ------------------                      ------------------------

                                     IN                                         IN
                                     --                                         --
        PRECIPITATION =        1.3351D+08          PRECIPITATION =                  
           STREAMFLOW =                               STREAMFLOW =                  
     GW BOUNDARY FLOW =           5624.68       GW BOUNDARY FLOW =              3.48


                                    OUT                                        OUT
                                    ---                                        ---
   EVAPOTRANSPIRATION =        7.4153D+07     EVAPOTRANSPIRATION =          77142.95
           STREAMFLOW =        7.4707D+07             STREAMFLOW =          10880.10
     GW BOUNDARY FLOW =          51167.53       GW BOUNDARY FLOW =             24.22

   INFLOWS - OUTFLOWS =       -1.5397D+07     INFLOWS - OUTFLOWS =         -88043.80
             --------                                   --------

 TOTAL STORAGE CHANGE =       -1.1149D+07         STORAGE CHANGE =         -87468.07
       --------------                             --------------
         LAND SURFACE =         367299.20           LAND SURFACE =         -19252.55
            SOIL ZONE =        1774991.17              SOIL ZONE =         -52123.68
     UNSATURATED ZONE =         -22760.84       UNSATURATED ZONE =          -9468.47
       SATURATED ZONE =       -1.3269D+07         SATURATED ZONE =          -6623.38

 OVERALL BUDGET ERROR =       -4247602.51           BUDGET ERROR =           -575.73


  PERCENT DISCREPANCY =             -2.89    PERCENT DISCREPANCY =             -0.66



1
 SUMMARY VOLUMETRIC BUDGET FOR GSFLOW 
 DATE: 09 10 1995              CUMULATIVE TIME STEP:      10
 MODFLOW STRESS PERIOD     61     CURRENT TIME STEP:    1806     ITERATIONS:       7

 -----------------------------------------------------------------------------------

   CUMULATIVE VOLUMES               L**3   RATES FOR THIS TIME STEP           L**3/T
   ------------------                      ------------------------

                                     IN                                         IN
                                     --                                         --
        PRECIPITATION =        1.3351D+08          PRECIPITATION =                  
           STREAMFLOW =                               STREAMFLOW =                  
     GW BOUNDARY FLOW =           5649.40       GW BOUNDARY FLOW =              3.57


                                    OUT                                        OUT
                                    ---                                        ---
   EVAPOTRANSPIRATION =        7.4587D+07     EVAPOTRANSPIRATION =          58084.58
           STREAMFLOW =        7.4779D+07             STREAMFLOW =           9790.92
     GW BOUNDARY FLOW =          51337.08       GW BOUNDARY FLOW =             24.19

   INFLOWS - OUTFLOWS =       -1.5903D+07     INFLOWS - OUTFLOWS =         -67896.13
             --------                                   --------

 TOTAL STORAGE CHANGE =       -1.1652D+07         STORAGE CHANGE =         -67406.95
       --------------                             --------------
         LAND SURFACE =         267725.60           LAND SURFACE =         -12446.55
            SOIL ZONE =        1478002.49              SOIL ZONE =         -39527.94
     UNSATURATED ZONE =         -86120.56       UNSATURATED ZONE =          -8924.14
       SATURATED ZONE =       -1.3312D+07         SATURATED ZONE =          -6508.33

 OVERALL BUDGET ERROR =       -4251115.13           BUDGET ERROR =           -489.18


  PERCENT DISCREPANCY =             -2.89    PERCENT DISCREPANCY =             -0.72



1
 SUMMARY VOLUMETRIC BUDGET FOR GSFLOW 
 DATE: 09 17 1995              CUMULATIVE TIME STEP:      17
 MODFLOW STRESS PERIOD     61     CURRENT TIME STEP:    1813     ITERATIONS:       7

 -----------------------------------------------------------------------------------

   CUMULATIVE VOLUMES               L**3   RATES FOR THIS TIME STEP           L**3/T
   ------------------                      ------------------------

                                     IN                                         IN
                                     --                                         --
        PRECIPITATION =        1.3351D+08          PRECIPITATION =                  
           STREAMFLOW =                               STREAMFLOW =                  
     GW BOUNDARY FLOW =           5674.75       GW BOUNDARY FLOW =              3.66


                                    OUT                                        OUT
                                    ---                                        ---
   EVAPOTRANSPIRATION =        7.5061D+07     EVAPOTRANSPIRATION =          54517.06
           STREAMFLOW =        7.4837D+07             STREAMFLOW =           8172.95
     GW BOUNDARY FLOW =          51505.65       GW BOUNDARY FLOW =             24.09

   INFLOWS - OUTFLOWS =       -1.6435D+07     INFLOWS - OUTFLOWS =         -62710.44
             --------                                   --------

 TOTAL STORAGE CHANGE =       -1.2180D+07         STORAGE CHANGE =         -62239.64
       --------------                             --------------
         LAND SURFACE =         177960.28           LAND SURFACE =          -9479.42
            SOIL ZONE =        1165798.05              SOIL ZONE =         -35747.52
     UNSATURATED ZONE =        -152585.15       UNSATURATED ZONE =          -9280.32
       SATURATED ZONE =       -1.3372D+07         SATURATED ZONE =          -7732.38

 OVERALL BUDGET ERROR =       -4254840.76           BUDGET ERROR =           -470.80


  PERCENT DISCREPANCY =             -2.88    PERCENT DISCREPANCY =             -0.75



1
 SUMMARY VOLUMETRIC BUDGET FOR GSFLOW 
 DATE: 09 24 1995              CUMULATIVE TIME STEP:      24
 MODFLOW STRESS PERIOD     61     CURRENT TIME STEP:    1820     ITERATIONS:       7

 -----------------------------------------------------------------------------------

   CUMULATIVE VOLUMES               L**3   RATES FOR THIS TIME STEP           L**3/T
   ------------------                      ------------------------

                                     IN                                         IN
                                     --                                         --
        PRECIPITATION =        1.3351D+08          PRECIPITATION =                  
           STREAMFLOW =                               STREAMFLOW =                  
     GW BOUNDARY FLOW =           5700.72       GW BOUNDARY FLOW =              3.75


                                    OUT                                        OUT
                                    ---                                        ---
   EVAPOTRANSPIRATION =        7.5399D+07     EVAPOTRANSPIRATION =          34880.98
           STREAMFLOW =        7.4893D+07             STREAMFLOW =           8365.63
     GW BOUNDARY FLOW =          51674.18       GW BOUNDARY FLOW =             24.12

   INFLOWS - OUTFLOWS =       -1.6829D+07     INFLOWS - OUTFLOWS =         -43266.98
             --------                                   --------

 TOTAL STORAGE CHANGE =       -1.2571D+07         STORAGE CHANGE =         -42853.41
       --------------                             --------------
         LAND SURFACE =         123669.61           LAND SURFACE =          -5454.35
            SOIL ZONE =         945120.72              SOIL ZONE =         -22486.92
     UNSATURATED ZONE =        -213264.30       UNSATURATED ZONE =          -8229.98
       SATURATED ZONE =       -1.3427D+07         SATURATED ZONE =          -6682.15

 OVERALL BUDGET ERROR =       -4258091.29           BUDGET ERROR =           -413.57


  PERCENT DISCREPANCY =             -2.87    PERCENT DISCREPANCY =             -0.96



1
 SUMMARY VOLUMETRIC BUDGET FOR GSFLOW 
 DATE: 10 01 1995              CUMULATIVE TIME STEP:       1
 MODFLOW STRESS PERIOD     62     CURRENT TIME STEP:    1827     ITERATIONS:       6

 -----------------------------------------------------------------------------------

   CUMULATIVE VOLUMES               L**3   RATES FOR THIS TIME STEP           L**3/T
   ------------------                      ------------------------

                                     IN                                         IN
                                     --                                         --
        PRECIPITATION =        1.3351D+08          PRECIPITATION =                  
           STREAMFLOW =                               STREAMFLOW =                  
     GW BOUNDARY FLOW =           5727.27       GW BOUNDARY FLOW =              3.83


                                    OUT                                        OUT
                                    ---                                        ---
   EVAPOTRANSPIRATION =        7.5537D+07     EVAPOTRANSPIRATION =          20746.54
           STREAMFLOW =        7.4957D+07             STREAMFLOW =           9038.06
     GW BOUNDARY FLOW =          51843.51       GW BOUNDARY FLOW =             24.19

   INFLOWS - OUTFLOWS =       -1.7032D+07     INFLOWS - OUTFLOWS =         -29804.97
             --------                                   --------

 TOTAL STORAGE CHANGE =       -1.2771D+07         STORAGE CHANGE =         -29452.00
       --------------                             --------------
         LAND SURFACE =         100770.57           LAND SURFACE =          -2835.89
            SOIL ZONE =         858668.15              SOIL ZONE =         -13356.06
     UNSATURATED ZONE =        -266374.79       UNSATURATED ZONE =          -7490.63
       SATURATED ZONE =       -1.3464D+07         SATURATED ZONE =          -5769.43

 OVERALL BUDGET ERROR =       -4260553.10           BUDGET ERROR =           -352.96


  PERCENT DISCREPANCY =             -2.87    PERCENT DISCREPANCY =             -1.19



1
 SUMMARY VOLUMETRIC BUDGET FOR GSFLOW 
 DATE: 10 08 1995              CUMULATIVE TIME STEP:       8
 MODFLOW STRESS PERIOD     62     CURRENT TIME STEP:    1834     ITERATIONS:       6

 -----------------------------------------------------------------------------------

   CUMULATIVE VOLUMES               L**3   RATES FOR THIS TIME STEP           L**3/T
   ------------------                      ------------------------

                                     IN                                         IN
                                     --                                         --
        PRECIPITATION =        1.3351D+08          PRECIPITATION =                  
           STREAMFLOW =                               STREAMFLOW =                  
     GW BOUNDARY FLOW =           5754.37       GW BOUNDARY FLOW =              3.90


                                    OUT                                        OUT
                                    ---                                        ---
   EVAPOTRANSPIRATION =        7.5698D+07     EVAPOTRANSPIRATION =          20121.09
           STREAMFLOW =        7.5018D+07             STREAMFLOW =           8726.56
     GW BOUNDARY FLOW =          52012.74       GW BOUNDARY FLOW =             24.19

   INFLOWS - OUTFLOWS =       -1.7253D+07     INFLOWS - OUTFLOWS =         -28867.94
             --------                                   --------

 TOTAL STORAGE CHANGE =       -1.2990D+07         STORAGE CHANGE =         -28524.16
       --------------                             --------------
         LAND SURFACE =          80522.27           LAND SURFACE =          -2457.43
            SOIL ZONE =         756490.89              SOIL ZONE =         -12499.64
     UNSATURATED ZONE =        -318476.31       UNSATURATED ZONE =          -7272.51
       SATURATED ZONE =       -1.3509D+07         SATURATED ZONE =          -6294.57

 OVERALL BUDGET ERROR =       -4263073.37           BUDGET ERROR =           -343.77


  PERCENT DISCREPANCY =             -2.87    PERCENT DISCREPANCY =             -1.20



1
 SUMMARY VOLUMETRIC BUDGET FOR GSFLOW 
 DATE: 10 15 1995              CUMULATIVE TIME STEP:      15
 MODFLOW STRESS PERIOD     62     CURRENT TIME STEP:    1841     ITERATIONS:       6

 -----------------------------------------------------------------------------------

   CUMULATIVE VOLUMES               L**3   RATES FOR THIS TIME STEP           L**3/T
   ------------------                      ------------------------

                                     IN                                         IN
                                     --                                         --
        PRECIPITATION =        1.3351D+08          PRECIPITATION =                  
           STREAMFLOW =                               STREAMFLOW =                  
     GW BOUNDARY FLOW =           5781.96       GW BOUNDARY FLOW =              3.97


                                    OUT                                        OUT
                                    ---                                        ---
   EVAPOTRANSPIRATION =        7.5856D+07     EVAPOTRANSPIRATION =          25259.80
           STREAMFLOW =        7.5076D+07             STREAMFLOW =           8099.45
     GW BOUNDARY FLOW =          52181.91       GW BOUNDARY FLOW =             24.15

   INFLOWS - OUTFLOWS =       -1.7470D+07     INFLOWS - OUTFLOWS =         -33379.43
             --------                                   --------

 TOTAL STORAGE CHANGE =       -1.3205D+07         STORAGE CHANGE =         -33019.05
       --------------                             --------------
         LAND SURFACE =          62088.08           LAND SURFACE =          -2638.24
            SOIL ZONE =         660810.67              SOIL ZONE =         -15170.18
     UNSATURATED ZONE =        -370639.64       UNSATURATED ZONE =          -7615.90
       SATURATED ZONE =       -1.3557D+07         SATURATED ZONE =          -7594.73

 OVERALL BUDGET ERROR =       -4265563.30           BUDGET ERROR =           -360.38


  PERCENT DISCREPANCY =             -2.87    PERCENT DISCREPANCY =             -1.09



1
 SUMMARY VOLUMETRIC BUDGET FOR GSFLOW 
 DATE: 10 22 1995              CUMULATIVE TIME STEP:      22
 MODFLOW STRESS PERIOD     62     CURRENT TIME STEP:    1848     ITERATIONS:       7

 -----------------------------------------------------------------------------------

   CUMULATIVE VOLUMES               L**3   RATES FOR THIS TIME STEP           L**3/T
   ------------------                      ------------------------

                                     IN                                         IN
                                     --                                         --
        PRECIPITATION =        1.3351D+08          PRECIPITATION =                  
           STREAMFLOW =                               STREAMFLOW =                  
     GW BOUNDARY FLOW =           5810.00       GW BOUNDARY FLOW =              4.04


                                    OUT                                        OUT
                                    ---                                        ---
   EVAPOTRANSPIRATION =        7.5998D+07     EVAPOTRANSPIRATION =           5889.91
           STREAMFLOW =        7.5134D+07             STREAMFLOW =           9263.84
     GW BOUNDARY FLOW =          52351.07       GW BOUNDARY FLOW =             24.26

   INFLOWS - OUTFLOWS =       -1.7670D+07     INFLOWS - OUTFLOWS =         -15173.97
             --------                                   --------

 TOTAL STORAGE CHANGE =       -1.3402D+07         STORAGE CHANGE =         -14908.55
       --------------                             --------------
         LAND SURFACE =          48265.30           LAND SURFACE =           -654.57
            SOIL ZONE =         577211.42              SOIL ZONE =          -3489.73
     UNSATURATED ZONE =        -420610.91       UNSATURATED ZONE =          -6258.18
       SATURATED ZONE =       -1.3607D+07         SATURATED ZONE =          -4506.06

 OVERALL BUDGET ERROR =       -4267949.65           BUDGET ERROR =           -265.42


  PERCENT DISCREPANCY =             -2.86    PERCENT DISCREPANCY =             -1.76



1
 SUMMARY VOLUMETRIC BUDGET FOR GSFLOW 
 DATE: 10 29 1995              CUMULATIVE TIME STEP:      29
 MODFLOW STRESS PERIOD     62     CURRENT TIME STEP:    1855     ITERATIONS:       5

 -----------------------------------------------------------------------------------

   CUMULATIVE VOLUMES               L**3   RATES FOR THIS TIME STEP           L**3/T
   ------------------                      ------------------------

                                     IN                                         IN
                                     --                                         --
        PRECIPITATION =        1.3351D+08          PRECIPITATION =                  
           STREAMFLOW =                               STREAMFLOW =                  
     GW BOUNDARY FLOW =           5838.59       GW BOUNDARY FLOW =              4.12


                                    OUT                                        OUT
                                    ---                                        ---
   EVAPOTRANSPIRATION =        7.6083D+07     EVAPOTRANSPIRATION =          14927.09
           STREAMFLOW =        7.5195D+07             STREAMFLOW =           8384.71
     GW BOUNDARY FLOW =          52520.63       GW BOUNDARY FLOW =             24.20

   INFLOWS - OUTFLOWS =       -1.7817D+07     INFLOWS - OUTFLOWS =         -23331.88
             --------                                   --------

 TOTAL STORAGE CHANGE =       -1.3546D+07         STORAGE CHANGE =         -23008.66
       --------------                             --------------
         LAND SURFACE =          42120.00           LAND SURFACE =          -1365.71
            SOIL ZONE =         527422.77              SOIL ZONE =          -8208.47
     UNSATURATED ZONE =        -466189.92       UNSATURATED ZONE =          -6524.86
       SATURATED ZONE =       -1.3650D+07         SATURATED ZONE =          -6909.62

 OVERALL BUDGET ERROR =       -4270145.89           BUDGET ERROR =           -323.22


  PERCENT DISCREPANCY =             -2.86    PERCENT DISCREPANCY =             -1.39



