1
 SUMMARY VOLUMETRIC BUDGET FOR GSFLOW 
 DATE: 10 07 1990              CUMULATIVE TIME STEP:       7
 MODFLOW STRESS PERIOD      2     CURRENT TIME STEP:       7     ITERATIONS:       7

 -----------------------------------------------------------------------------------

   CUMULATIVE VOLUMES               L**3   RATES FOR THIS TIME STEP           L**3/T
   ------------------                      ------------------------

                                     IN                                         IN
                                     --                                         --
        PRECIPITATION =                            PRECIPITATION =                  
           STREAMFLOW =                               STREAMFLOW =                  
     GW BOUNDARY FLOW =                         GW BOUNDARY FLOW =                  


                                    OUT                                        OUT
                                    ---                                        ---
   EVAPOTRANSPIRATION =         382456.28     EVAPOTRANSPIRATION =          12594.23
           STREAMFLOW =          46356.73             STREAMFLOW =           8178.86
     GW BOUNDARY FLOW =            252.80       GW BOUNDARY FLOW =             36.30

   INFLOWS - OUTFLOWS =        -429065.82     INFLOWS - OUTFLOWS =         -20809.39
             --------                                   --------

 TOTAL STORAGE CHANGE =        -427598.17         STORAGE CHANGE =         -20781.27
       --------------                             --------------
         LAND SURFACE =                             LAND SURFACE =                  
            SOIL ZONE =         -33477.30              SOIL ZONE =          -1008.94
     UNSATURATED ZONE =        -500050.71       UNSATURATED ZONE =         -33985.52
       SATURATED ZONE =         105929.84         SATURATED ZONE =          14213.20

 OVERALL BUDGET ERROR =          -1467.65           BUDGET ERROR =            -28.12


  PERCENT DISCREPANCY =             -0.34    PERCENT DISCREPANCY =             -0.14



1
 SUMMARY VOLUMETRIC BUDGET FOR GSFLOW 
 DATE: 10 14 1990              CUMULATIVE TIME STEP:      14
 MODFLOW STRESS PERIOD      2     CURRENT TIME STEP:      14     ITERATIONS:       8

 -----------------------------------------------------------------------------------

   CUMULATIVE VOLUMES               L**3   RATES FOR THIS TIME STEP           L**3/T
   ------------------                      ------------------------

                                     IN                                         IN
                                     --                                         --
        PRECIPITATION =                            PRECIPITATION =                  
           STREAMFLOW =                               STREAMFLOW =                  
     GW BOUNDARY FLOW =                         GW BOUNDARY FLOW =                  


                                    OUT                                        OUT
                                    ---                                        ---
   EVAPOTRANSPIRATION =         661808.65     EVAPOTRANSPIRATION =          42924.53
           STREAMFLOW =         100570.85             STREAMFLOW =           7164.43
     GW BOUNDARY FLOW =            506.62       GW BOUNDARY FLOW =             36.23

   INFLOWS - OUTFLOWS =        -762886.13     INFLOWS - OUTFLOWS =         -50125.19
             --------                                   --------

 TOTAL STORAGE CHANGE =        -761123.13         STORAGE CHANGE =         -50101.78
       --------------                             --------------
         LAND SURFACE =                             LAND SURFACE =                  
            SOIL ZONE =         -58389.39              SOIL ZONE =          -4450.29
     UNSATURATED ZONE =        -874353.19       UNSATURATED ZONE =         -52672.23
       SATURATED ZONE =         171619.44         SATURATED ZONE =           7020.74

 OVERALL BUDGET ERROR =          -1763.00           BUDGET ERROR =            -23.41


  PERCENT DISCREPANCY =             -0.23    PERCENT DISCREPANCY =             -0.05



1
 SUMMARY VOLUMETRIC BUDGET FOR GSFLOW 
 DATE: 10 21 1990              CUMULATIVE TIME STEP:      21
 MODFLOW STRESS PERIOD      2     CURRENT TIME STEP:      21     ITERATIONS:       6

 -----------------------------------------------------------------------------------

   CUMULATIVE VOLUMES               L**3   RATES FOR THIS TIME STEP           L**3/T
   ------------------                      ------------------------

                                     IN                                         IN
                                     --                                         --
        PRECIPITATION =         188432.87          PRECIPITATION =                  
           STREAMFLOW =                               STREAMFLOW =                  
     GW BOUNDARY FLOW =                         GW BOUNDARY FLOW =                  


                                    OUT                                        OUT
                                    ---                                        ---
   EVAPOTRANSPIRATION =         804124.81     EVAPOTRANSPIRATION =          36527.23
           STREAMFLOW =         163250.60             STREAMFLOW =          10101.45
     GW BOUNDARY FLOW =            760.80       GW BOUNDARY FLOW =             36.37

   INFLOWS - OUTFLOWS =        -779703.35     INFLOWS - OUTFLOWS =         -46665.05
             --------                                   --------

 TOTAL STORAGE CHANGE =        -777884.68         STORAGE CHANGE =         -46669.46
       --------------                             --------------
         LAND SURFACE =          15977.62           LAND SURFACE =         -34861.64
            SOIL ZONE =          57277.39              SOIL ZONE =           -416.80
     UNSATURATED ZONE =       -1086774.80       UNSATURATED ZONE =         -22042.28
       SATURATED ZONE =         235635.10         SATURATED ZONE =          10651.26

 OVERALL BUDGET ERROR =          -1818.66           BUDGET ERROR =              4.41


  PERCENT DISCREPANCY =             -0.19    PERCENT DISCREPANCY =              0.01



1
 SUMMARY VOLUMETRIC BUDGET FOR GSFLOW 
 DATE: 10 28 1990              CUMULATIVE TIME STEP:      28
 MODFLOW STRESS PERIOD      2     CURRENT TIME STEP:      28     ITERATIONS:       7

 -----------------------------------------------------------------------------------

   CUMULATIVE VOLUMES               L**3   RATES FOR THIS TIME STEP           L**3/T
   ------------------                      ------------------------

                                     IN                                         IN
                                     --                                         --
        PRECIPITATION =         188432.87          PRECIPITATION =                  
           STREAMFLOW =                               STREAMFLOW =                  
     GW BOUNDARY FLOW =                         GW BOUNDARY FLOW =                  


                                    OUT                                        OUT
                                    ---                                        ---
   EVAPOTRANSPIRATION =         929255.55     EVAPOTRANSPIRATION =          11275.38
           STREAMFLOW =         224693.45             STREAMFLOW =           8971.69
     GW BOUNDARY FLOW =           1013.99       GW BOUNDARY FLOW =             36.13

   INFLOWS - OUTFLOWS =        -966530.11     INFLOWS - OUTFLOWS =         -20283.19
             --------                                   --------

 TOTAL STORAGE CHANGE =        -964697.91         STORAGE CHANGE =         -20282.99
       --------------                             --------------
         LAND SURFACE =                             LAND SURFACE =                  
            SOIL ZONE =          29051.42              SOIL ZONE =          -3313.71
     UNSATURATED ZONE =       -1271505.08       UNSATURATED ZONE =         -23199.70
       SATURATED ZONE =         277755.74         SATURATED ZONE =           6230.42

 OVERALL BUDGET ERROR =          -1832.20           BUDGET ERROR =             -0.21


  PERCENT DISCREPANCY =             -0.16    PERCENT DISCREPANCY =             -0.00



1
 SUMMARY VOLUMETRIC BUDGET FOR GSFLOW 
 DATE: 11 04 1990              CUMULATIVE TIME STEP:       4
 MODFLOW STRESS PERIOD      3     CURRENT TIME STEP:      35     ITERATIONS:       6

 -----------------------------------------------------------------------------------

   CUMULATIVE VOLUMES               L**3   RATES FOR THIS TIME STEP           L**3/T
   ------------------                      ------------------------

                                     IN                                         IN
                                     --                                         --
        PRECIPITATION =         703113.06          PRECIPITATION =                  
           STREAMFLOW =                               STREAMFLOW =                  
     GW BOUNDARY FLOW =                         GW BOUNDARY FLOW =                  


                                    OUT                                        OUT
                                    ---                                        ---
   EVAPOTRANSPIRATION =         988513.12     EVAPOTRANSPIRATION =          25494.12
           STREAMFLOW =         295123.48             STREAMFLOW =          10510.02
     GW BOUNDARY FLOW =           1267.02       GW BOUNDARY FLOW =             36.13

   INFLOWS - OUTFLOWS =        -581790.57     INFLOWS - OUTFLOWS =         -36040.27
             --------                                   --------

 TOTAL STORAGE CHANGE =        -579980.85         STORAGE CHANGE =         -36044.97
       --------------                             --------------
         LAND SURFACE =          71009.70           LAND SURFACE =         -84159.07
            SOIL ZONE =         427935.74              SOIL ZONE =          58903.73
     UNSATURATED ZONE =       -1417383.46       UNSATURATED ZONE =         -20113.57
       SATURATED ZONE =         338457.18         SATURATED ZONE =           9323.94

 OVERALL BUDGET ERROR =          -1809.72           BUDGET ERROR =              4.70


  PERCENT DISCREPANCY =             -0.14    PERCENT DISCREPANCY =              0.01



1
 SUMMARY VOLUMETRIC BUDGET FOR GSFLOW 
 DATE: 11 11 1990              CUMULATIVE TIME STEP:      11
 MODFLOW STRESS PERIOD      3     CURRENT TIME STEP:      42     ITERATIONS:       6

 -----------------------------------------------------------------------------------

   CUMULATIVE VOLUMES               L**3   RATES FOR THIS TIME STEP           L**3/T
   ------------------                      ------------------------

                                     IN                                         IN
                                     --                                         --
        PRECIPITATION =         703113.06          PRECIPITATION =                  
           STREAMFLOW =                               STREAMFLOW =                  
     GW BOUNDARY FLOW =                         GW BOUNDARY FLOW =                  


                                    OUT                                        OUT
                                    ---                                        ---
   EVAPOTRANSPIRATION =        1061277.22     EVAPOTRANSPIRATION =          12492.05
           STREAMFLOW =         365856.89             STREAMFLOW =           9640.77
     GW BOUNDARY FLOW =           1519.12       GW BOUNDARY FLOW =             35.93

   INFLOWS - OUTFLOWS =        -725540.17     INFLOWS - OUTFLOWS =         -22168.75
             --------                                   --------

 TOTAL STORAGE CHANGE =        -723752.85         STORAGE CHANGE =         -22171.47
       --------------                             --------------
         LAND SURFACE =            295.92           LAND SURFACE =           -859.89
            SOIL ZONE =         445428.50              SOIL ZONE =          -6271.26
     UNSATURATED ZONE =       -1557580.76       UNSATURATED ZONE =         -20021.90
       SATURATED ZONE =         388103.50         SATURATED ZONE =           4981.58

 OVERALL BUDGET ERROR =          -1787.32           BUDGET ERROR =              2.71


  PERCENT DISCREPANCY =             -0.13    PERCENT DISCREPANCY =              0.01



1
 SUMMARY VOLUMETRIC BUDGET FOR GSFLOW 
 DATE: 11 18 1990              CUMULATIVE TIME STEP:      18
 MODFLOW STRESS PERIOD      3     CURRENT TIME STEP:      49     ITERATIONS:       6

 -----------------------------------------------------------------------------------

   CUMULATIVE VOLUMES               L**3   RATES FOR THIS TIME STEP           L**3/T
   ------------------                      ------------------------

                                     IN                                         IN
                                     --                                         --
        PRECIPITATION =         747883.35          PRECIPITATION =                  
           STREAMFLOW =                               STREAMFLOW =                  
     GW BOUNDARY FLOW =                         GW BOUNDARY FLOW =                  


                                    OUT                                        OUT
                                    ---                                        ---
   EVAPOTRANSPIRATION =        1130208.62     EVAPOTRANSPIRATION =           5354.63
           STREAMFLOW =         437419.34             STREAMFLOW =          10654.10
     GW BOUNDARY FLOW =           1770.43       GW BOUNDARY FLOW =             35.88

   INFLOWS - OUTFLOWS =        -821515.04     INFLOWS - OUTFLOWS =         -16044.62
             --------                                   --------

 TOTAL STORAGE CHANGE =        -819744.81         STORAGE CHANGE =         -16048.34
       --------------                             --------------
         LAND SURFACE =          10077.61           LAND SURFACE =          -4199.79
            SOIL ZONE =         428578.75              SOIL ZONE =           -533.67
     UNSATURATED ZONE =       -1691443.92       UNSATURATED ZONE =         -18676.17
       SATURATED ZONE =         433042.75         SATURATED ZONE =           7361.29

 OVERALL BUDGET ERROR =          -1770.23           BUDGET ERROR =              3.72


  PERCENT DISCREPANCY =             -0.11    PERCENT DISCREPANCY =              0.02



1
 SUMMARY VOLUMETRIC BUDGET FOR GSFLOW 
 DATE: 11 25 1990              CUMULATIVE TIME STEP:      25
 MODFLOW STRESS PERIOD      3     CURRENT TIME STEP:      56     ITERATIONS:       6

 -----------------------------------------------------------------------------------

   CUMULATIVE VOLUMES               L**3   RATES FOR THIS TIME STEP           L**3/T
   ------------------                      ------------------------

                                     IN                                         IN
                                     --                                         --
        PRECIPITATION =        1009043.38          PRECIPITATION =         186542.88
           STREAMFLOW =                               STREAMFLOW =                  
     GW BOUNDARY FLOW =                         GW BOUNDARY FLOW =                  


                                    OUT                                        OUT
                                    ---                                        ---
   EVAPOTRANSPIRATION =        1190026.61     EVAPOTRANSPIRATION =           3828.15
           STREAMFLOW =         513102.70             STREAMFLOW =          10736.62
     GW BOUNDARY FLOW =           2021.36       GW BOUNDARY FLOW =             35.79

   INFLOWS - OUTFLOWS =        -696107.30     INFLOWS - OUTFLOWS =         171942.32
             --------                                   --------

 TOTAL STORAGE CHANGE =        -694356.75         STORAGE CHANGE =         171939.91
       --------------                             --------------
         LAND SURFACE =          92124.67           LAND SURFACE =          75233.82
            SOIL ZONE =         550349.85              SOIL ZONE =         108356.94
     UNSATURATED ZONE =       -1819459.01       UNSATURATED ZONE =         -17987.06
       SATURATED ZONE =         482627.74         SATURATED ZONE =           6336.20

 OVERALL BUDGET ERROR =          -1750.55           BUDGET ERROR =              2.41


  PERCENT DISCREPANCY =             -0.10    PERCENT DISCREPANCY =              0.00



1
 SUMMARY VOLUMETRIC BUDGET FOR GSFLOW 
 DATE: 12 02 1990              CUMULATIVE TIME STEP:       2
 MODFLOW STRESS PERIOD      4     CURRENT TIME STEP:      63     ITERATIONS:       6

 -----------------------------------------------------------------------------------

   CUMULATIVE VOLUMES               L**3   RATES FOR THIS TIME STEP           L**3/T
   ------------------                      ------------------------

                                     IN                                         IN
                                     --                                         --
        PRECIPITATION =        1449284.55          PRECIPITATION =                  
           STREAMFLOW =                               STREAMFLOW =                  
     GW BOUNDARY FLOW =                         GW BOUNDARY FLOW =                  


                                    OUT                                        OUT
                                    ---                                        ---
   EVAPOTRANSPIRATION =        1197595.04     EVAPOTRANSPIRATION =            374.47
           STREAMFLOW =         589982.24             STREAMFLOW =          11033.08
     GW BOUNDARY FLOW =           2271.84       GW BOUNDARY FLOW =             35.77

   INFLOWS - OUTFLOWS =        -340564.57     INFLOWS - OUTFLOWS =         -11443.31
             --------                                   --------

 TOTAL STORAGE CHANGE =        -338829.55         STORAGE CHANGE =         -11445.21
       --------------                             --------------
         LAND SURFACE =         493448.43           LAND SURFACE =           -453.37
            SOIL ZONE =         582605.85              SOIL ZONE =            209.45
     UNSATURATED ZONE =       -1942674.32       UNSATURATED ZONE =         -17309.55
       SATURATED ZONE =         527790.48         SATURATED ZONE =           6108.25

 OVERALL BUDGET ERROR =          -1735.02           BUDGET ERROR =              1.89


  PERCENT DISCREPANCY =             -0.10    PERCENT DISCREPANCY =              0.02



1
 SUMMARY VOLUMETRIC BUDGET FOR GSFLOW 
 DATE: 12 09 1990              CUMULATIVE TIME STEP:       9
 MODFLOW STRESS PERIOD      4     CURRENT TIME STEP:      70     ITERATIONS:       6

 -----------------------------------------------------------------------------------

   CUMULATIVE VOLUMES               L**3   RATES FOR THIS TIME STEP           L**3/T
   ------------------                      ------------------------

                                     IN                                         IN
                                     --                                         --
        PRECIPITATION =        1449284.55          PRECIPITATION =                  
           STREAMFLOW =                               STREAMFLOW =                  
     GW BOUNDARY FLOW =                         GW BOUNDARY FLOW =                  


                                    OUT                                        OUT
                                    ---                                        ---
   EVAPOTRANSPIRATION =        1274507.79     EVAPOTRANSPIRATION =          13605.42
           STREAMFLOW =         666749.56             STREAMFLOW =          10692.50
     GW BOUNDARY FLOW =           2521.77       GW BOUNDARY FLOW =             35.64

   INFLOWS - OUTFLOWS =        -494494.57     INFLOWS - OUTFLOWS =         -24333.56
             --------                                   --------

 TOTAL STORAGE CHANGE =        -492772.36         STORAGE CHANGE =         -24334.20
       --------------                             --------------
         LAND SURFACE =          66382.66           LAND SURFACE =         -46525.53
            SOIL ZONE =         937692.15              SOIL ZONE =          34918.79
     UNSATURATED ZONE =       -2060829.47       UNSATURATED ZONE =         -16531.62
       SATURATED ZONE =         563982.30         SATURATED ZONE =           3804.15

 OVERALL BUDGET ERROR =          -1722.21           BUDGET ERROR =              0.64


  PERCENT DISCREPANCY =             -0.09    PERCENT DISCREPANCY =              0.00



1
 SUMMARY VOLUMETRIC BUDGET FOR GSFLOW 
 DATE: 12 16 1990              CUMULATIVE TIME STEP:      16
 MODFLOW STRESS PERIOD      4     CURRENT TIME STEP:      77     ITERATIONS:       6

 -----------------------------------------------------------------------------------

   CUMULATIVE VOLUMES               L**3   RATES FOR THIS TIME STEP           L**3/T
   ------------------                      ------------------------

                                     IN                                         IN
                                     --                                         --
        PRECIPITATION =        1804962.84          PRECIPITATION =                  
           STREAMFLOW =                               STREAMFLOW =                  
     GW BOUNDARY FLOW =                         GW BOUNDARY FLOW =                  


                                    OUT                                        OUT
                                    ---                                        ---
   EVAPOTRANSPIRATION =        1302837.89     EVAPOTRANSPIRATION =                  
           STREAMFLOW =         745117.02             STREAMFLOW =          11387.09
     GW BOUNDARY FLOW =           2771.15       GW BOUNDARY FLOW =             35.60

   INFLOWS - OUTFLOWS =        -245763.21     INFLOWS - OUTFLOWS =         -11422.69
             --------                                   --------

 TOTAL STORAGE CHANGE =        -244048.95         STORAGE CHANGE =         -11423.27
       --------------                             --------------
         LAND SURFACE =         256077.36           LAND SURFACE =                  
            SOIL ZONE =        1079655.65              SOIL ZONE =            149.01
     UNSATURATED ZONE =       -2174504.22       UNSATURATED ZONE =         -15981.95
       SATURATED ZONE =         594722.27         SATURATED ZONE =           4409.68

 OVERALL BUDGET ERROR =          -1714.26           BUDGET ERROR =              0.57


  PERCENT DISCREPANCY =             -0.08    PERCENT DISCREPANCY =              0.01



1
 SUMMARY VOLUMETRIC BUDGET FOR GSFLOW 
 DATE: 12 23 1990              CUMULATIVE TIME STEP:      23
 MODFLOW STRESS PERIOD      4     CURRENT TIME STEP:      84     ITERATIONS:       6

 -----------------------------------------------------------------------------------

   CUMULATIVE VOLUMES               L**3   RATES FOR THIS TIME STEP           L**3/T
   ------------------                      ------------------------

                                     IN                                         IN
                                     --                                         --
        PRECIPITATION =        2276236.55          PRECIPITATION =                  
           STREAMFLOW =                               STREAMFLOW =                  
     GW BOUNDARY FLOW =              0.08       GW BOUNDARY FLOW =              0.04


                                    OUT                                        OUT
                                    ---                                        ---
   EVAPOTRANSPIRATION =        1304212.50     EVAPOTRANSPIRATION =                  
           STREAMFLOW =         825256.14             STREAMFLOW =          11488.04
     GW BOUNDARY FLOW =           3020.16       GW BOUNDARY FLOW =             35.57

   INFLOWS - OUTFLOWS =         143747.83     INFLOWS - OUTFLOWS =         -11523.57
             --------                                   --------

 TOTAL STORAGE CHANGE =         145461.30         STORAGE CHANGE =         -11523.30
       --------------                             --------------
         LAND SURFACE =         725980.66           LAND SURFACE =                  
            SOIL ZONE =        1080742.47              SOIL ZONE =            158.90
     UNSATURATED ZONE =       -2283939.44       UNSATURATED ZONE =         -15386.02
       SATURATED ZONE =         622677.62         SATURATED ZONE =           3703.83

 OVERALL BUDGET ERROR =          -1713.47           BUDGET ERROR =             -0.27


  PERCENT DISCREPANCY =             -0.08    PERCENT DISCREPANCY =             -0.00



1
 SUMMARY VOLUMETRIC BUDGET FOR GSFLOW 
 DATE: 12 30 1990              CUMULATIVE TIME STEP:      30
 MODFLOW STRESS PERIOD      4     CURRENT TIME STEP:      91     ITERATIONS:       5

 -----------------------------------------------------------------------------------

   CUMULATIVE VOLUMES               L**3   RATES FOR THIS TIME STEP           L**3/T
   ------------------                      ------------------------

                                     IN                                         IN
                                     --                                         --
        PRECIPITATION =        2276236.55          PRECIPITATION =                  
           STREAMFLOW =                               STREAMFLOW =                  
     GW BOUNDARY FLOW =              0.77       GW BOUNDARY FLOW =              0.14


                                    OUT                                        OUT
                                    ---                                        ---
   EVAPOTRANSPIRATION =        1304965.14     EVAPOTRANSPIRATION =                  
           STREAMFLOW =         906071.03             STREAMFLOW =          11588.21
     GW BOUNDARY FLOW =           3269.25       GW BOUNDARY FLOW =             35.60

   INFLOWS - OUTFLOWS =          61931.90     INFLOWS - OUTFLOWS =         -11623.66
             --------                                   --------

 TOTAL STORAGE CHANGE =          63655.29         STORAGE CHANGE =         -11621.29
       --------------                             --------------
         LAND SURFACE =         725228.17           LAND SURFACE =                  
            SOIL ZONE =        1081899.27              SOIL ZONE =            170.49
     UNSATURATED ZONE =       -2389491.14       UNSATURATED ZONE =         -14848.66
       SATURATED ZONE =         646018.99         SATURATED ZONE =           3056.88

 OVERALL BUDGET ERROR =          -1723.39           BUDGET ERROR =             -2.37


  PERCENT DISCREPANCY =             -0.08    PERCENT DISCREPANCY =             -0.02



1
 SUMMARY VOLUMETRIC BUDGET FOR GSFLOW 
 DATE: 01 06 1991              CUMULATIVE TIME STEP:       6
 MODFLOW STRESS PERIOD      5     CURRENT TIME STEP:      98     ITERATIONS:       5

 -----------------------------------------------------------------------------------

   CUMULATIVE VOLUMES               L**3   RATES FOR THIS TIME STEP           L**3/T
   ------------------                      ------------------------

                                     IN                                         IN
                                     --                                         --
        PRECIPITATION =        2276236.55          PRECIPITATION =                  
           STREAMFLOW =                               STREAMFLOW =                  
     GW BOUNDARY FLOW =              2.10       GW BOUNDARY FLOW =              0.22


                                    OUT                                        OUT
                                    ---                                        ---
   EVAPOTRANSPIRATION =        1328233.69     EVAPOTRANSPIRATION =           2582.15
           STREAMFLOW =         987532.44             STREAMFLOW =          11669.97
     GW BOUNDARY FLOW =           3519.10       GW BOUNDARY FLOW =             35.75

   INFLOWS - OUTFLOWS =         -43046.59     INFLOWS - OUTFLOWS =         -14287.65
             --------                                   --------

 TOTAL STORAGE CHANGE =         -41300.09         STORAGE CHANGE =         -14283.92
       --------------                             --------------
         LAND SURFACE =         620283.30           LAND SURFACE =          -6112.33
            SOIL ZONE =        1164839.83              SOIL ZONE =           3712.37
     UNSATURATED ZONE =       -2491097.13       UNSATURATED ZONE =         -14277.15
       SATURATED ZONE =         664673.90         SATURATED ZONE =           2393.20

 OVERALL BUDGET ERROR =          -1746.50           BUDGET ERROR =             -3.73


  PERCENT DISCREPANCY =             -0.08    PERCENT DISCREPANCY =             -0.03



1
 SUMMARY VOLUMETRIC BUDGET FOR GSFLOW 
 DATE: 01 13 1991              CUMULATIVE TIME STEP:      13
 MODFLOW STRESS PERIOD      5     CURRENT TIME STEP:     105     ITERATIONS:       6

 -----------------------------------------------------------------------------------

   CUMULATIVE VOLUMES               L**3   RATES FOR THIS TIME STEP           L**3/T
   ------------------                      ------------------------

                                     IN                                         IN
                                     --                                         --
        PRECIPITATION =        2596386.94          PRECIPITATION =          10327.43
           STREAMFLOW =                               STREAMFLOW =                  
     GW BOUNDARY FLOW =              4.02       GW BOUNDARY FLOW =              0.31


                                    OUT                                        OUT
                                    ---                                        ---
   EVAPOTRANSPIRATION =        1388068.64     EVAPOTRANSPIRATION =          16664.18
           STREAMFLOW =        1069134.55             STREAMFLOW =          11515.61
     GW BOUNDARY FLOW =           3769.31       GW BOUNDARY FLOW =             35.72

   INFLOWS - OUTFLOWS =         135418.46     INFLOWS - OUTFLOWS =         -17887.77
             --------                                   --------

 TOTAL STORAGE CHANGE =         137196.54         STORAGE CHANGE =         -17885.09
       --------------                             --------------
         LAND SURFACE =         586364.86           LAND SURFACE =        -135127.18
            SOIL ZONE =        1461882.81              SOIL ZONE =         130012.17
     UNSATURATED ZONE =       -2588673.14       UNSATURATED ZONE =         -13746.74
       SATURATED ZONE =         677622.01         SATURATED ZONE =            976.66

 OVERALL BUDGET ERROR =          -1778.08           BUDGET ERROR =             -2.69


  PERCENT DISCREPANCY =             -0.07    PERCENT DISCREPANCY =             -0.01



1
 SUMMARY VOLUMETRIC BUDGET FOR GSFLOW 
 DATE: 01 20 1991              CUMULATIVE TIME STEP:      20
 MODFLOW STRESS PERIOD      5     CURRENT TIME STEP:     112     ITERATIONS:       5

 -----------------------------------------------------------------------------------

   CUMULATIVE VOLUMES               L**3   RATES FOR THIS TIME STEP           L**3/T
   ------------------                      ------------------------

                                     IN                                         IN
                                     --                                         --
        PRECIPITATION =        2596386.94          PRECIPITATION =                  
           STREAMFLOW =                               STREAMFLOW =                  
     GW BOUNDARY FLOW =              6.55       GW BOUNDARY FLOW =              0.40


                                    OUT                                        OUT
                                    ---                                        ---
   EVAPOTRANSPIRATION =        1456314.80     EVAPOTRANSPIRATION =           1812.15
           STREAMFLOW =        1151209.54             STREAMFLOW =          11770.88
     GW BOUNDARY FLOW =           4019.53       GW BOUNDARY FLOW =             35.75

   INFLOWS - OUTFLOWS =         -15150.36     INFLOWS - OUTFLOWS =         -13618.38
             --------                                   --------

 TOTAL STORAGE CHANGE =         -13327.82         STORAGE CHANGE =         -13610.81
       --------------                             --------------
         LAND SURFACE =         422210.59           LAND SURFACE =           -295.67
            SOIL ZONE =        1560274.28              SOIL ZONE =          -1285.21
     UNSATURATED ZONE =       -2682333.91       UNSATURATED ZONE =         -13156.18
       SATURATED ZONE =         686521.22         SATURATED ZONE =           1126.26

 OVERALL BUDGET ERROR =          -1822.54           BUDGET ERROR =             -7.57


  PERCENT DISCREPANCY =             -0.07    PERCENT DISCREPANCY =             -0.06



1
 SUMMARY VOLUMETRIC BUDGET FOR GSFLOW 
 DATE: 01 27 1991              CUMULATIVE TIME STEP:      27
 MODFLOW STRESS PERIOD      5     CURRENT TIME STEP:     119     ITERATIONS:       5

 -----------------------------------------------------------------------------------

   CUMULATIVE VOLUMES               L**3   RATES FOR THIS TIME STEP           L**3/T
   ------------------                      ------------------------

                                     IN                                         IN
                                     --                                         --
        PRECIPITATION =        2596386.94          PRECIPITATION =                  
           STREAMFLOW =                               STREAMFLOW =                  
     GW BOUNDARY FLOW =              9.66       GW BOUNDARY FLOW =              0.48


                                    OUT                                        OUT
                                    ---                                        ---
   EVAPOTRANSPIRATION =        1477313.43     EVAPOTRANSPIRATION =           1217.92
           STREAMFLOW =        1233779.90             STREAMFLOW =          11831.31
     GW BOUNDARY FLOW =           4269.71       GW BOUNDARY FLOW =             35.74

   INFLOWS - OUTFLOWS =        -118966.44     INFLOWS - OUTFLOWS =         -13084.49
             --------                                   --------

 TOTAL STORAGE CHANGE =        -117084.44         STORAGE CHANGE =         -13075.49
       --------------                             --------------
         LAND SURFACE =         394226.40           LAND SURFACE =           -109.80
            SOIL ZONE =        1569260.57              SOIL ZONE =           -901.74
     UNSATURATED ZONE =       -2772459.43       UNSATURATED ZONE =         -12654.93
       SATURATED ZONE =         691888.02         SATURATED ZONE =            590.98

 OVERALL BUDGET ERROR =          -1882.01           BUDGET ERROR =             -9.00


  PERCENT DISCREPANCY =             -0.07    PERCENT DISCREPANCY =             -0.07



1
 SUMMARY VOLUMETRIC BUDGET FOR GSFLOW 
 DATE: 02 03 1991              CUMULATIVE TIME STEP:       3
 MODFLOW STRESS PERIOD      6     CURRENT TIME STEP:     126     ITERATIONS:       6

 -----------------------------------------------------------------------------------

   CUMULATIVE VOLUMES               L**3   RATES FOR THIS TIME STEP           L**3/T
   ------------------                      ------------------------

                                     IN                                         IN
                                     --                                         --
        PRECIPITATION =        3228422.31          PRECIPITATION =          30459.53
           STREAMFLOW =                               STREAMFLOW =                  
     GW BOUNDARY FLOW =             13.32       GW BOUNDARY FLOW =              0.55


                                    OUT                                        OUT
                                    ---                                        ---
   EVAPOTRANSPIRATION =        1575765.58     EVAPOTRANSPIRATION =          20018.04
           STREAMFLOW =        1316549.75             STREAMFLOW =          11853.80
     GW BOUNDARY FLOW =           4519.83       GW BOUNDARY FLOW =             35.73

   INFLOWS - OUTFLOWS =         331600.47     INFLOWS - OUTFLOWS =          -1447.48
             --------                                   --------

 TOTAL STORAGE CHANGE =         333540.57         STORAGE CHANGE =          -1442.91
       --------------                             --------------
         LAND SURFACE =         184727.70           LAND SURFACE =         -28670.24
            SOIL ZONE =        2316500.37              SOIL ZONE =          39668.07
     UNSATURATED ZONE =       -2859461.74       UNSATURATED ZONE =         -12238.67
       SATURATED ZONE =         691774.23         SATURATED ZONE =           -202.07

 OVERALL BUDGET ERROR =          -1940.09           BUDGET ERROR =             -4.57


  PERCENT DISCREPANCY =             -0.06    PERCENT DISCREPANCY =             -0.01



1
 SUMMARY VOLUMETRIC BUDGET FOR GSFLOW 
 DATE: 02 10 1991              CUMULATIVE TIME STEP:      10
 MODFLOW STRESS PERIOD      6     CURRENT TIME STEP:     133     ITERATIONS:       5

 -----------------------------------------------------------------------------------

   CUMULATIVE VOLUMES               L**3   RATES FOR THIS TIME STEP           L**3/T
   ------------------                      ------------------------

                                     IN                                         IN
                                     --                                         --
        PRECIPITATION =        3510173.01          PRECIPITATION =                  
           STREAMFLOW =                               STREAMFLOW =                  
     GW BOUNDARY FLOW =             17.50       GW BOUNDARY FLOW =              0.63


                                    OUT                                        OUT
                                    ---                                        ---
   EVAPOTRANSPIRATION =        1741309.91     EVAPOTRANSPIRATION =          25322.63
           STREAMFLOW =        1398481.13             STREAMFLOW =          11838.56
     GW BOUNDARY FLOW =           4769.80       GW BOUNDARY FLOW =             35.71

   INFLOWS - OUTFLOWS =         365629.67     INFLOWS - OUTFLOWS =         -37196.28
             --------                                   --------

 TOTAL STORAGE CHANGE =         367599.12         STORAGE CHANGE =         -37184.45
       --------------                             --------------
         LAND SURFACE =          90050.80           LAND SURFACE =         -12330.62
            SOIL ZONE =        2529875.50              SOIL ZONE =         -12529.91
     UNSATURATED ZONE =       -2942870.51       UNSATURATED ZONE =         -11783.91
       SATURATED ZONE =         690543.33         SATURATED ZONE =           -540.02

 OVERALL BUDGET ERROR =          -1969.45           BUDGET ERROR =            -11.82


  PERCENT DISCREPANCY =             -0.06    PERCENT DISCREPANCY =             -0.03



1
 SUMMARY VOLUMETRIC BUDGET FOR GSFLOW 
 DATE: 02 17 1991              CUMULATIVE TIME STEP:      17
 MODFLOW STRESS PERIOD      6     CURRENT TIME STEP:     140     ITERATIONS:       5

 -----------------------------------------------------------------------------------

   CUMULATIVE VOLUMES               L**3   RATES FOR THIS TIME STEP           L**3/T
   ------------------                      ------------------------

                                     IN                                         IN
                                     --                                         --
        PRECIPITATION =        3510173.01          PRECIPITATION =                  
           STREAMFLOW =                               STREAMFLOW =                  
     GW BOUNDARY FLOW =             22.17       GW BOUNDARY FLOW =              0.70


                                    OUT                                        OUT
                                    ---                                        ---
   EVAPOTRANSPIRATION =        1981556.31     EVAPOTRANSPIRATION =          23106.93
           STREAMFLOW =        1481667.82             STREAMFLOW =          11909.60
     GW BOUNDARY FLOW =           5019.69       GW BOUNDARY FLOW =             35.67

   INFLOWS - OUTFLOWS =          41951.36     INFLOWS - OUTFLOWS =         -35051.50
             --------                                   --------

 TOTAL STORAGE CHANGE =          44010.31         STORAGE CHANGE =         -35038.01
       --------------                             --------------
         LAND SURFACE =          18163.74           LAND SURFACE =          -1654.25
            SOIL ZONE =        2364066.36              SOIL ZONE =         -21299.75
     UNSATURATED ZONE =       -3022887.19       UNSATURATED ZONE =         -11079.72
       SATURATED ZONE =         684667.40         SATURATED ZONE =          -1004.29

 OVERALL BUDGET ERROR =          -2058.95           BUDGET ERROR =            -13.49


  PERCENT DISCREPANCY =             -0.06    PERCENT DISCREPANCY =             -0.04



1
 SUMMARY VOLUMETRIC BUDGET FOR GSFLOW 
 DATE: 02 24 1991              CUMULATIVE TIME STEP:      24
 MODFLOW STRESS PERIOD      6     CURRENT TIME STEP:     147     ITERATIONS:       5

 -----------------------------------------------------------------------------------

   CUMULATIVE VOLUMES               L**3   RATES FOR THIS TIME STEP           L**3/T
   ------------------                      ------------------------

                                     IN                                         IN
                                     --                                         --
        PRECIPITATION =        3510173.01          PRECIPITATION =                  
           STREAMFLOW =                               STREAMFLOW =                  
     GW BOUNDARY FLOW =             27.32       GW BOUNDARY FLOW =              0.76


                                    OUT                                        OUT
                                    ---                                        ---
   EVAPOTRANSPIRATION =        2196941.74     EVAPOTRANSPIRATION =          21931.37
           STREAMFLOW =        1563849.89             STREAMFLOW =          11904.20
     GW BOUNDARY FLOW =           5268.69       GW BOUNDARY FLOW =             35.50

   INFLOWS - OUTFLOWS =        -255859.99     INFLOWS - OUTFLOWS =         -33870.31
             --------                                   --------

 TOTAL STORAGE CHANGE =        -253753.54         STORAGE CHANGE =         -33855.06
       --------------                             --------------
         LAND SURFACE =           6686.42           LAND SURFACE =           -239.07
            SOIL ZONE =        2161529.71              SOIL ZONE =         -21479.15
     UNSATURATED ZONE =       -3098790.86       UNSATURATED ZONE =         -10673.04
       SATURATED ZONE =         676821.18         SATURATED ZONE =          -1463.80

 OVERALL BUDGET ERROR =          -2106.44           BUDGET ERROR =            -15.25


  PERCENT DISCREPANCY =             -0.06    PERCENT DISCREPANCY =             -0.05



1
 SUMMARY VOLUMETRIC BUDGET FOR GSFLOW 
 DATE: 03 03 1991              CUMULATIVE TIME STEP:       3
 MODFLOW STRESS PERIOD      7     CURRENT TIME STEP:     154     ITERATIONS:       5

 -----------------------------------------------------------------------------------

   CUMULATIVE VOLUMES               L**3   RATES FOR THIS TIME STEP           L**3/T
   ------------------                      ------------------------

                                     IN                                         IN
                                     --                                         --
        PRECIPITATION =        6220189.63          PRECIPITATION =        1243187.24
           STREAMFLOW =                               STREAMFLOW =                  
     GW BOUNDARY FLOW =             32.92       GW BOUNDARY FLOW =              0.83


                                    OUT                                        OUT
                                    ---                                        ---
   EVAPOTRANSPIRATION =        2349357.67     EVAPOTRANSPIRATION =           7996.21
           STREAMFLOW =        1646962.02             STREAMFLOW =          11817.25
     GW BOUNDARY FLOW =           5516.53       GW BOUNDARY FLOW =             35.32

   INFLOWS - OUTFLOWS =        2218386.35     INFLOWS - OUTFLOWS =        1223339.29
             --------                                   --------

 TOTAL STORAGE CHANGE =        2220595.41         STORAGE CHANGE =        1223355.75
       --------------                             --------------
         LAND SURFACE =        2505892.53           LAND SURFACE =        1046737.06
            SOIL ZONE =        2223231.05              SOIL ZONE =         189218.30
     UNSATURATED ZONE =       -3171866.90       UNSATURATED ZONE =         -10269.88
       SATURATED ZONE =         663338.73         SATURATED ZONE =          -2329.73

 OVERALL BUDGET ERROR =          -2209.06           BUDGET ERROR =            -16.46


  PERCENT DISCREPANCY =             -0.04    PERCENT DISCREPANCY =             -0.00



1
 SUMMARY VOLUMETRIC BUDGET FOR GSFLOW 
 DATE: 03 10 1991              CUMULATIVE TIME STEP:      10
 MODFLOW STRESS PERIOD      7     CURRENT TIME STEP:     161     ITERATIONS:       6

 -----------------------------------------------------------------------------------

   CUMULATIVE VOLUMES               L**3   RATES FOR THIS TIME STEP           L**3/T
   ------------------                      ------------------------

                                     IN                                         IN
                                     --                                         --
        PRECIPITATION =        8746030.42          PRECIPITATION =          32888.55
           STREAMFLOW =                               STREAMFLOW =                  
     GW BOUNDARY FLOW =             38.97       GW BOUNDARY FLOW =              0.89


                                    OUT                                        OUT
                                    ---                                        ---
   EVAPOTRANSPIRATION =        2402072.60     EVAPOTRANSPIRATION =           6903.57
           STREAMFLOW =        1740101.38             STREAMFLOW =          12418.97
     GW BOUNDARY FLOW =           5763.63       GW BOUNDARY FLOW =             35.23

   INFLOWS - OUTFLOWS =        4598131.78     INFLOWS - OUTFLOWS =          13531.67
             --------                                   --------

 TOTAL STORAGE CHANGE =        4600428.60         STORAGE CHANGE =          13539.84
       --------------                             --------------
         LAND SURFACE =        3056677.02           LAND SURFACE =          -5526.40
            SOIL ZONE =        4105979.62              SOIL ZONE =          26165.14
     UNSATURATED ZONE =       -3210928.43       UNSATURATED ZONE =          -4723.08
       SATURATED ZONE =         648700.39         SATURATED ZONE =          -2375.82

 OVERALL BUDGET ERROR =          -2296.82           BUDGET ERROR =             -8.17


  PERCENT DISCREPANCY =             -0.03    PERCENT DISCREPANCY =             -0.02



1
 SUMMARY VOLUMETRIC BUDGET FOR GSFLOW 
 DATE: 03 17 1991              CUMULATIVE TIME STEP:      17
 MODFLOW STRESS PERIOD      7     CURRENT TIME STEP:     168     ITERATIONS:       5

 -----------------------------------------------------------------------------------

   CUMULATIVE VOLUMES               L**3   RATES FOR THIS TIME STEP           L**3/T
   ------------------                      ------------------------

                                     IN                                         IN
                                     --                                         --
        PRECIPITATION =        9897129.71          PRECIPITATION =         157865.04
           STREAMFLOW =                               STREAMFLOW =                  
     GW BOUNDARY FLOW =             45.43       GW BOUNDARY FLOW =              0.95


                                    OUT                                        OUT
                                    ---                                        ---
   EVAPOTRANSPIRATION =        2423502.35     EVAPOTRANSPIRATION =           6384.89
           STREAMFLOW =        1828167.96             STREAMFLOW =          12612.36
     GW BOUNDARY FLOW =           6009.76       GW BOUNDARY FLOW =             35.10

   INFLOWS - OUTFLOWS =        5639495.07     INFLOWS - OUTFLOWS =         138833.64
             --------                                   --------

 TOTAL STORAGE CHANGE =        5641902.06         STORAGE CHANGE =         138852.80
       --------------                             --------------
         LAND SURFACE =        4188230.79           LAND SURFACE =         152136.56
            SOIL ZONE =        4065903.57              SOIL ZONE =          -5564.44
     UNSATURATED ZONE =       -3244326.53       UNSATURATED ZONE =          -5019.12
       SATURATED ZONE =         632094.23         SATURATED ZONE =          -2700.20

 OVERALL BUDGET ERROR =          -2406.98           BUDGET ERROR =            -19.16


  PERCENT DISCREPANCY =             -0.02    PERCENT DISCREPANCY =             -0.01



1
 SUMMARY VOLUMETRIC BUDGET FOR GSFLOW 
 DATE: 03 24 1991              CUMULATIVE TIME STEP:      24
 MODFLOW STRESS PERIOD      7     CURRENT TIME STEP:     175     ITERATIONS:       5

 -----------------------------------------------------------------------------------

   CUMULATIVE VOLUMES               L**3   RATES FOR THIS TIME STEP           L**3/T
   ------------------                      ------------------------

                                     IN                                         IN
                                     --                                         --
        PRECIPITATION =        1.1673D+07          PRECIPITATION =        1230031.83
           STREAMFLOW =                               STREAMFLOW =                  
     GW BOUNDARY FLOW =             52.31       GW BOUNDARY FLOW =              1.01


                                    OUT                                        OUT
                                    ---                                        ---
   EVAPOTRANSPIRATION =        2454418.06     EVAPOTRANSPIRATION =           3635.96
           STREAMFLOW =        1917641.30             STREAMFLOW =          12900.62
     GW BOUNDARY FLOW =           6255.00       GW BOUNDARY FLOW =             34.98

   INFLOWS - OUTFLOWS =        7294849.44     INFLOWS - OUTFLOWS =        1213461.27
             --------                                   --------

 TOTAL STORAGE CHANGE =        7297382.27         STORAGE CHANGE =        1213480.94
       --------------                             --------------
         LAND SURFACE =        5933783.02           LAND SURFACE =        1227482.51
            SOIL ZONE =        4030288.07              SOIL ZONE =          -6060.39
     UNSATURATED ZONE =       -3279505.77       UNSATURATED ZONE =          -5089.22
       SATURATED ZONE =         612816.96         SATURATED ZONE =          -2851.96

 OVERALL BUDGET ERROR =          -2532.83           BUDGET ERROR =            -19.67


  PERCENT DISCREPANCY =             -0.02    PERCENT DISCREPANCY =             -0.00



1
 SUMMARY VOLUMETRIC BUDGET FOR GSFLOW 
 DATE: 03 31 1991              CUMULATIVE TIME STEP:      31
 MODFLOW STRESS PERIOD      7     CURRENT TIME STEP:     182     ITERATIONS:       6

 -----------------------------------------------------------------------------------

   CUMULATIVE VOLUMES               L**3   RATES FOR THIS TIME STEP           L**3/T
   ------------------                      ------------------------

                                     IN                                         IN
                                     --                                         --
        PRECIPITATION =        1.2495D+07          PRECIPITATION =                  
           STREAMFLOW =                               STREAMFLOW =                  
     GW BOUNDARY FLOW =             59.57       GW BOUNDARY FLOW =              1.06


                                    OUT                                        OUT
                                    ---                                        ---
   EVAPOTRANSPIRATION =        2561001.53     EVAPOTRANSPIRATION =          43707.25
           STREAMFLOW =        2009719.56             STREAMFLOW =          13563.24
     GW BOUNDARY FLOW =           6499.49       GW BOUNDARY FLOW =             34.89

   INFLOWS - OUTFLOWS =        7918164.28     INFLOWS - OUTFLOWS =         -57304.32
             --------                                   --------

 TOTAL STORAGE CHANGE =        7920829.47         STORAGE CHANGE =         -57294.31
       --------------                             --------------
         LAND SURFACE =        6553217.20           LAND SURFACE =        -112248.23
            SOIL ZONE =        4089531.31              SOIL ZONE =          62570.21
     UNSATURATED ZONE =       -3313725.15       UNSATURATED ZONE =          -4316.13
       SATURATED ZONE =         591806.11         SATURATED ZONE =          -3300.16

 OVERALL BUDGET ERROR =          -2665.19           BUDGET ERROR =            -10.02


  PERCENT DISCREPANCY =             -0.02    PERCENT DISCREPANCY =             -0.02



1
 SUMMARY VOLUMETRIC BUDGET FOR GSFLOW 
 DATE: 04 07 1991              CUMULATIVE TIME STEP:       7
 MODFLOW STRESS PERIOD      8     CURRENT TIME STEP:     189     ITERATIONS:       6

 -----------------------------------------------------------------------------------

   CUMULATIVE VOLUMES               L**3   RATES FOR THIS TIME STEP           L**3/T
   ------------------                      ------------------------

                                     IN                                         IN
                                     --                                         --
        PRECIPITATION =        1.3018D+07          PRECIPITATION =                  
           STREAMFLOW =                               STREAMFLOW =                  
     GW BOUNDARY FLOW =             67.22       GW BOUNDARY FLOW =              1.11


                                    OUT                                        OUT
                                    ---                                        ---
   EVAPOTRANSPIRATION =        2844374.85     EVAPOTRANSPIRATION =          13548.64
           STREAMFLOW =        2172592.47             STREAMFLOW =          29513.49
     GW BOUNDARY FLOW =           6744.59       GW BOUNDARY FLOW =             35.11

   INFLOWS - OUTFLOWS =        7994092.05     INFLOWS - OUTFLOWS =         -43096.12
             --------                                   --------

 TOTAL STORAGE CHANGE =        7996870.67         STORAGE CHANGE =         -43086.91
       --------------                             --------------
         LAND SURFACE =        5033071.34           LAND SURFACE =         -59134.98
            SOIL ZONE =        5695462.52              SOIL ZONE =          10573.36
     UNSATURATED ZONE =       -3303124.05       UNSATURATED ZONE =           7901.27
       SATURATED ZONE =         571460.86         SATURATED ZONE =          -2426.56

 OVERALL BUDGET ERROR =          -2778.63           BUDGET ERROR =             -9.21


  PERCENT DISCREPANCY =             -0.02    PERCENT DISCREPANCY =             -0.02



1
 SUMMARY VOLUMETRIC BUDGET FOR GSFLOW 
 DATE: 04 14 1991              CUMULATIVE TIME STEP:      14
 MODFLOW STRESS PERIOD      8     CURRENT TIME STEP:     196     ITERATIONS:       7

 -----------------------------------------------------------------------------------

   CUMULATIVE VOLUMES               L**3   RATES FOR THIS TIME STEP           L**3/T
   ------------------                      ------------------------

                                     IN                                         IN
                                     --                                         --
        PRECIPITATION =        1.3018D+07          PRECIPITATION =                  
           STREAMFLOW =                               STREAMFLOW =                  
     GW BOUNDARY FLOW =             75.20       GW BOUNDARY FLOW =              1.16


                                    OUT                                        OUT
                                    ---                                        ---
   EVAPOTRANSPIRATION =        3014297.36     EVAPOTRANSPIRATION =          38955.66
           STREAMFLOW =        2488929.69             STREAMFLOW =          58510.42
     GW BOUNDARY FLOW =           6991.48       GW BOUNDARY FLOW =             35.40

   INFLOWS - OUTFLOWS =        7507593.40     INFLOWS - OUTFLOWS =         -97500.33
             --------                                   --------

 TOTAL STORAGE CHANGE =        7510458.34         STORAGE CHANGE =         -97496.86
       --------------                             --------------
         LAND SURFACE =        4428670.44           LAND SURFACE =        -170838.53
            SOIL ZONE =        5771253.64              SOIL ZONE =          67273.76
     UNSATURATED ZONE =       -3246376.00       UNSATURATED ZONE =           7838.72
       SATURATED ZONE =         556910.25         SATURATED ZONE =          -1770.81

 OVERALL BUDGET ERROR =          -2864.93           BUDGET ERROR =             -3.47


  PERCENT DISCREPANCY =             -0.02    PERCENT DISCREPANCY =             -0.00



1
 SUMMARY VOLUMETRIC BUDGET FOR GSFLOW 
 DATE: 04 21 1991              CUMULATIVE TIME STEP:      21
 MODFLOW STRESS PERIOD      8     CURRENT TIME STEP:     203     ITERATIONS:      10

 -----------------------------------------------------------------------------------

   CUMULATIVE VOLUMES               L**3   RATES FOR THIS TIME STEP           L**3/T
   ------------------                      ------------------------

                                     IN                                         IN
                                     --                                         --
        PRECIPITATION =        1.3034D+07          PRECIPITATION =                  
           STREAMFLOW =                               STREAMFLOW =                  
     GW BOUNDARY FLOW =             83.49       GW BOUNDARY FLOW =              1.20


                                    OUT                                        OUT
                                    ---                                        ---
   EVAPOTRANSPIRATION =        3246099.21     EVAPOTRANSPIRATION =          43459.74
           STREAMFLOW =        2955559.64             STREAMFLOW =          78875.84
     GW BOUNDARY FLOW =           7239.53       GW BOUNDARY FLOW =             35.54

   INFLOWS - OUTFLOWS =        6825247.20     INFLOWS - OUTFLOWS =        -122369.91
             --------                                   --------

 TOTAL STORAGE CHANGE =        6828131.70         STORAGE CHANGE =        -122369.01
       --------------                             --------------
         LAND SURFACE =        3288381.99           LAND SURFACE =        -224119.74
            SOIL ZONE =        6178361.21              SOIL ZONE =          92309.59
     UNSATURATED ZONE =       -3185303.38       UNSATURATED ZONE =          10658.94
       SATURATED ZONE =         546691.87         SATURATED ZONE =          -1217.79

 OVERALL BUDGET ERROR =          -2884.50           BUDGET ERROR =             -0.90


  PERCENT DISCREPANCY =             -0.02    PERCENT DISCREPANCY =             -0.00



1
 SUMMARY VOLUMETRIC BUDGET FOR GSFLOW 
 DATE: 04 28 1991              CUMULATIVE TIME STEP:      28
 MODFLOW STRESS PERIOD      8     CURRENT TIME STEP:     210     ITERATIONS:       7

 -----------------------------------------------------------------------------------

   CUMULATIVE VOLUMES               L**3   RATES FOR THIS TIME STEP           L**3/T
   ------------------                      ------------------------

                                     IN                                         IN
                                     --                                         --
        PRECIPITATION =        1.3303D+07          PRECIPITATION =                  
           STREAMFLOW =                               STREAMFLOW =                  
     GW BOUNDARY FLOW =             92.06       GW BOUNDARY FLOW =              1.24


                                    OUT                                        OUT
                                    ---                                        ---
   EVAPOTRANSPIRATION =        3493057.27     EVAPOTRANSPIRATION =          55283.23
           STREAMFLOW =        3527924.23             STREAMFLOW =          84194.88
     GW BOUNDARY FLOW =           7488.05       GW BOUNDARY FLOW =             35.48

   INFLOWS - OUTFLOWS =        6275053.01     INFLOWS - OUTFLOWS =        -139512.35
             --------                                   --------

 TOTAL STORAGE CHANGE =        6277954.00         STORAGE CHANGE =        -139510.04
       --------------                             --------------
         LAND SURFACE =        2542972.48           LAND SURFACE =        -158428.10
            SOIL ZONE =        6300654.83              SOIL ZONE =           8643.23
     UNSATURATED ZONE =       -3105753.81       UNSATURATED ZONE =          11053.74
       SATURATED ZONE =         540080.51         SATURATED ZONE =           -778.91

 OVERALL BUDGET ERROR =          -2900.99           BUDGET ERROR =             -2.31


  PERCENT DISCREPANCY =             -0.02    PERCENT DISCREPANCY =             -0.00



1
 SUMMARY VOLUMETRIC BUDGET FOR GSFLOW 
 DATE: 05 05 1991              CUMULATIVE TIME STEP:       5
 MODFLOW STRESS PERIOD      9     CURRENT TIME STEP:     217     ITERATIONS:       6

 -----------------------------------------------------------------------------------

   CUMULATIVE VOLUMES               L**3   RATES FOR THIS TIME STEP           L**3/T
   ------------------                      ------------------------

                                     IN                                         IN
                                     --                                         --
        PRECIPITATION =        1.3510D+07          PRECIPITATION =                  
           STREAMFLOW =                               STREAMFLOW =                  
     GW BOUNDARY FLOW =            100.90       GW BOUNDARY FLOW =              1.28


                                    OUT                                        OUT
                                    ---                                        ---
   EVAPOTRANSPIRATION =        3842126.83     EVAPOTRANSPIRATION =          84817.23
           STREAMFLOW =        4076238.09             STREAMFLOW =          83957.29
     GW BOUNDARY FLOW =           7735.47       GW BOUNDARY FLOW =             35.34

   INFLOWS - OUTFLOWS =        5583708.65     INFLOWS - OUTFLOWS =        -168808.58
             --------                                   --------

 TOTAL STORAGE CHANGE =        5586629.36         STORAGE CHANGE =        -168806.40
       --------------                             --------------
         LAND SURFACE =        1737575.89           LAND SURFACE =        -184922.33
            SOIL ZONE =        6343715.99              SOIL ZONE =           5525.08
     UNSATURATED ZONE =       -3029588.19       UNSATURATED ZONE =          11070.54
       SATURATED ZONE =         534925.67         SATURATED ZONE =           -479.69

 OVERALL BUDGET ERROR =          -2920.72           BUDGET ERROR =             -2.18


  PERCENT DISCREPANCY =             -0.02    PERCENT DISCREPANCY =             -0.00



1
 SUMMARY VOLUMETRIC BUDGET FOR GSFLOW 
 DATE: 05 12 1991              CUMULATIVE TIME STEP:      12
 MODFLOW STRESS PERIOD      9     CURRENT TIME STEP:     224     ITERATIONS:       6

 -----------------------------------------------------------------------------------

   CUMULATIVE VOLUMES               L**3   RATES FOR THIS TIME STEP           L**3/T
   ------------------                      ------------------------

                                     IN                                         IN
                                     --                                         --
        PRECIPITATION =        1.4029D+07          PRECIPITATION =                  
           STREAMFLOW =                               STREAMFLOW =                  
     GW BOUNDARY FLOW =            110.00       GW BOUNDARY FLOW =              1.32


                                    OUT                                        OUT
                                    ---                                        ---
   EVAPOTRANSPIRATION =        4212055.78     EVAPOTRANSPIRATION =          62594.93
           STREAMFLOW =        4639295.46             STREAMFLOW =          90524.73
     GW BOUNDARY FLOW =           7981.82       GW BOUNDARY FLOW =             35.22

   INFLOWS - OUTFLOWS =        5169999.09     INFLOWS - OUTFLOWS =        -153153.57
             --------                                   --------

 TOTAL STORAGE CHANGE =        5172933.84         STORAGE CHANGE =        -153151.15
       --------------                             --------------
         LAND SURFACE =        1228262.74           LAND SURFACE =        -215603.20
            SOIL ZONE =        6368181.07              SOIL ZONE =          52665.61
     UNSATURATED ZONE =       -2956452.45       UNSATURATED ZONE =          10276.13
       SATURATED ZONE =         532942.48         SATURATED ZONE =           -489.69

 OVERALL BUDGET ERROR =          -2934.75           BUDGET ERROR =             -2.42


  PERCENT DISCREPANCY =             -0.02    PERCENT DISCREPANCY =             -0.00



1
 SUMMARY VOLUMETRIC BUDGET FOR GSFLOW 
 DATE: 05 19 1991              CUMULATIVE TIME STEP:      19
 MODFLOW STRESS PERIOD      9     CURRENT TIME STEP:     231     ITERATIONS:       7

 -----------------------------------------------------------------------------------

   CUMULATIVE VOLUMES               L**3   RATES FOR THIS TIME STEP           L**3/T
   ------------------                      ------------------------

                                     IN                                         IN
                                     --                                         --
        PRECIPITATION =        1.4365D+07          PRECIPITATION =                  
           STREAMFLOW =                               STREAMFLOW =                  
     GW BOUNDARY FLOW =            119.36       GW BOUNDARY FLOW =              1.35


                                    OUT                                        OUT
                                    ---                                        ---
   EVAPOTRANSPIRATION =        4612164.62     EVAPOTRANSPIRATION =          17977.42
           STREAMFLOW =        5160490.31             STREAMFLOW =          62710.16
     GW BOUNDARY FLOW =           8226.45       GW BOUNDARY FLOW =             34.74

   INFLOWS - OUTFLOWS =        4584616.29     INFLOWS - OUTFLOWS =         -80720.97
             --------                                   --------

 TOTAL STORAGE CHANGE =        4587556.53         STORAGE CHANGE =         -80720.60
       --------------                             --------------
         LAND SURFACE =         710055.97           LAND SURFACE =         -20899.31
            SOIL ZONE =        6236237.18              SOIL ZONE =         -67908.21
     UNSATURATED ZONE =       -2890102.00       UNSATURATED ZONE =           8287.21
       SATURATED ZONE =         531365.38         SATURATED ZONE =           -200.30

 OVERALL BUDGET ERROR =          -2940.24           BUDGET ERROR =             -0.36


  PERCENT DISCREPANCY =             -0.02    PERCENT DISCREPANCY =             -0.00



1
 SUMMARY VOLUMETRIC BUDGET FOR GSFLOW 
 DATE: 05 26 1991              CUMULATIVE TIME STEP:      26
 MODFLOW STRESS PERIOD      9     CURRENT TIME STEP:     238     ITERATIONS:       7

 -----------------------------------------------------------------------------------

   CUMULATIVE VOLUMES               L**3   RATES FOR THIS TIME STEP           L**3/T
   ------------------                      ------------------------

                                     IN                                         IN
                                     --                                         --
        PRECIPITATION =        1.4426D+07          PRECIPITATION =                  
           STREAMFLOW =                               STREAMFLOW =                  
     GW BOUNDARY FLOW =            128.99       GW BOUNDARY FLOW =              1.39


                                    OUT                                        OUT
                                    ---                                        ---
   EVAPOTRANSPIRATION =        5259520.01     EVAPOTRANSPIRATION =          71093.69
           STREAMFLOW =        5532195.65             STREAMFLOW =          38256.43
     GW BOUNDARY FLOW =           8468.04       GW BOUNDARY FLOW =             34.24

   INFLOWS - OUTFLOWS =        3626442.90     INFLOWS - OUTFLOWS =        -109382.96
             --------                                   --------

 TOTAL STORAGE CHANGE =        3629384.63         STORAGE CHANGE =        -109382.82
       --------------                             --------------
         LAND SURFACE =         283723.71           LAND SURFACE =         -27810.11
            SOIL ZONE =        5661528.90              SOIL ZONE =         -84839.97
     UNSATURATED ZONE =       -2847333.68       UNSATURATED ZONE =           3379.83
       SATURATED ZONE =         531465.70         SATURATED ZONE =           -112.58

 OVERALL BUDGET ERROR =          -2941.73           BUDGET ERROR =             -0.14


  PERCENT DISCREPANCY =             -0.02    PERCENT DISCREPANCY =             -0.00



1
 SUMMARY VOLUMETRIC BUDGET FOR GSFLOW 
 DATE: 06 02 1991              CUMULATIVE TIME STEP:       2
 MODFLOW STRESS PERIOD     10     CURRENT TIME STEP:     245     ITERATIONS:       6

 -----------------------------------------------------------------------------------

   CUMULATIVE VOLUMES               L**3   RATES FOR THIS TIME STEP           L**3/T
   ------------------                      ------------------------

                                     IN                                         IN
                                     --                                         --
        PRECIPITATION =        1.4671D+07          PRECIPITATION =                  
           STREAMFLOW =                               STREAMFLOW =                  
     GW BOUNDARY FLOW =            138.90       GW BOUNDARY FLOW =              1.43


                                    OUT                                        OUT
                                    ---                                        ---
   EVAPOTRANSPIRATION =        5804466.68     EVAPOTRANSPIRATION =         119396.93
           STREAMFLOW =        5792172.41             STREAMFLOW =          31633.44
     GW BOUNDARY FLOW =           8706.94       GW BOUNDARY FLOW =             33.98

   INFLOWS - OUTFLOWS =        3065767.67     INFLOWS - OUTFLOWS =        -151062.91
             --------                                   --------

 TOTAL STORAGE CHANGE =        3068719.79         STORAGE CHANGE =        -151059.87
       --------------                             --------------
         LAND SURFACE =         133141.95           LAND SURFACE =         -21748.77
            SOIL ZONE =        5242420.87              SOIL ZONE =        -129424.99
     UNSATURATED ZONE =       -2835274.07       UNSATURATED ZONE =            826.43
       SATURATED ZONE =         528431.04         SATURATED ZONE =           -712.53

 OVERALL BUDGET ERROR =          -2952.12           BUDGET ERROR =             -3.04


  PERCENT DISCREPANCY =             -0.02    PERCENT DISCREPANCY =             -0.00



1
 SUMMARY VOLUMETRIC BUDGET FOR GSFLOW 
 DATE: 06 09 1991              CUMULATIVE TIME STEP:       9
 MODFLOW STRESS PERIOD     10     CURRENT TIME STEP:     252     ITERATIONS:       6

 -----------------------------------------------------------------------------------

   CUMULATIVE VOLUMES               L**3   RATES FOR THIS TIME STEP           L**3/T
   ------------------                      ------------------------

                                     IN                                         IN
                                     --                                         --
        PRECIPITATION =        1.4671D+07          PRECIPITATION =                  
           STREAMFLOW =                               STREAMFLOW =                  
     GW BOUNDARY FLOW =            149.09       GW BOUNDARY FLOW =              1.47


                                    OUT                                        OUT
                                    ---                                        ---
   EVAPOTRANSPIRATION =        6520876.39     EVAPOTRANSPIRATION =         166531.68
           STREAMFLOW =        5971610.05             STREAMFLOW =          21021.49
     GW BOUNDARY FLOW =           8943.42       GW BOUNDARY FLOW =             33.63

   INFLOWS - OUTFLOWS =        2169694.03     INFLOWS - OUTFLOWS =        -187585.34
             --------                                   --------

 TOTAL STORAGE CHANGE =        2172673.81         STORAGE CHANGE =        -187579.97
       --------------                             --------------
         LAND SURFACE =          42792.54           LAND SURFACE =         -14518.27
            SOIL ZONE =        4457026.18              SOIL ZONE =        -168158.70
     UNSATURATED ZONE =       -2847578.19       UNSATURATED ZONE =          -3493.92
       SATURATED ZONE =         520433.28         SATURATED ZONE =          -1409.07

 OVERALL BUDGET ERROR =          -2979.78           BUDGET ERROR =             -5.37


  PERCENT DISCREPANCY =             -0.02    PERCENT DISCREPANCY =             -0.00



1
 SUMMARY VOLUMETRIC BUDGET FOR GSFLOW 
 DATE: 06 16 1991              CUMULATIVE TIME STEP:      16
 MODFLOW STRESS PERIOD     10     CURRENT TIME STEP:     259     ITERATIONS:       6

 -----------------------------------------------------------------------------------

   CUMULATIVE VOLUMES               L**3   RATES FOR THIS TIME STEP           L**3/T
   ------------------                      ------------------------

                                     IN                                         IN
                                     --                                         --
        PRECIPITATION =        1.4671D+07          PRECIPITATION =                  
           STREAMFLOW =                               STREAMFLOW =                  
     GW BOUNDARY FLOW =            159.58       GW BOUNDARY FLOW =              1.51


                                    OUT                                        OUT
                                    ---                                        ---
   EVAPOTRANSPIRATION =        7480268.77     EVAPOTRANSPIRATION =         108473.03
           STREAMFLOW =        6095255.44             STREAMFLOW =          16823.45
     GW BOUNDARY FLOW =           9177.77       GW BOUNDARY FLOW =             33.40

   INFLOWS - OUTFLOWS =        1086432.39     INFLOWS - OUTFLOWS =        -125328.35
             --------                                   --------

 TOTAL STORAGE CHANGE =        1089471.56         STORAGE CHANGE =        -125318.84
       --------------                             --------------
         LAND SURFACE =           5456.07           LAND SURFACE =          -1579.06
            SOIL ZONE =        3481360.01              SOIL ZONE =        -109377.68
     UNSATURATED ZONE =       -2901561.53       UNSATURATED ZONE =         -11335.57
       SATURATED ZONE =         504217.01         SATURATED ZONE =          -3026.53

 OVERALL BUDGET ERROR =          -3039.17           BUDGET ERROR =             -9.52


  PERCENT DISCREPANCY =             -0.02    PERCENT DISCREPANCY =             -0.01



1
 SUMMARY VOLUMETRIC BUDGET FOR GSFLOW 
 DATE: 06 23 1991              CUMULATIVE TIME STEP:      23
 MODFLOW STRESS PERIOD     10     CURRENT TIME STEP:     266     ITERATIONS:       6

 -----------------------------------------------------------------------------------

   CUMULATIVE VOLUMES               L**3   RATES FOR THIS TIME STEP           L**3/T
   ------------------                      ------------------------

                                     IN                                         IN
                                     --                                         --
        PRECIPITATION =        1.4671D+07          PRECIPITATION =                  
           STREAMFLOW =                               STREAMFLOW =                  
     GW BOUNDARY FLOW =            170.24       GW BOUNDARY FLOW =              1.50


                                    OUT                                        OUT
                                    ---                                        ---
   EVAPOTRANSPIRATION =        7960091.07     EVAPOTRANSPIRATION =          34510.21
           STREAMFLOW =        6208949.83             STREAMFLOW =          15987.61
     GW BOUNDARY FLOW =           9410.88       GW BOUNDARY FLOW =             33.23

   INFLOWS - OUTFLOWS =         492693.26     INFLOWS - OUTFLOWS =         -50529.55
             --------                                   --------

 TOTAL STORAGE CHANGE =         495791.86         STORAGE CHANGE =         -50519.22
       --------------                             --------------
         LAND SURFACE =           1456.34           LAND SURFACE =           -205.23
            SOIL ZONE =        3000809.89              SOIL ZONE =         -36148.95
     UNSATURATED ZONE =       -2983816.37       UNSATURATED ZONE =          -9916.87
       SATURATED ZONE =         477342.01         SATURATED ZONE =          -4248.17

 OVERALL BUDGET ERROR =          -3098.60           BUDGET ERROR =            -10.33


  PERCENT DISCREPANCY =             -0.02    PERCENT DISCREPANCY =             -0.02



1
 SUMMARY VOLUMETRIC BUDGET FOR GSFLOW 
 DATE: 06 30 1991              CUMULATIVE TIME STEP:      30
 MODFLOW STRESS PERIOD     10     CURRENT TIME STEP:     273     ITERATIONS:      11

 -----------------------------------------------------------------------------------

   CUMULATIVE VOLUMES               L**3   RATES FOR THIS TIME STEP           L**3/T
   ------------------                      ------------------------

                                     IN                                         IN
[...]
                                    ---                                        ---
   EVAPOTRANSPIRATION =        7.3600D+07     EVAPOTRANSPIRATION =          83349.48
           STREAMFLOW =        6.9971D+07             STREAMFLOW =          13622.62
     GW BOUNDARY FLOW =          51261.69       GW BOUNDARY FLOW =             25.15

   INFLOWS - OUTFLOWS =       -1.0109D+07     INFLOWS - OUTFLOWS =         -96994.09
             --------                                   --------

 TOTAL STORAGE CHANGE =       -1.0101D+07         STORAGE CHANGE =         -97005.38
       --------------                             --------------
         LAND SURFACE =         396765.16           LAND SURFACE =         -19619.57
            SOIL ZONE =        2498991.62              SOIL ZONE =         -63669.70
     UNSATURATED ZONE =          87471.61       UNSATURATED ZONE =         -10206.74
       SATURATED ZONE =       -1.3084D+07         SATURATED ZONE =          -3509.37

 OVERALL BUDGET ERROR =          -7572.24           BUDGET ERROR =             11.30


  PERCENT DISCREPANCY =             -0.01    PERCENT DISCREPANCY =              0.01



1
 SUMMARY VOLUMETRIC BUDGET FOR GSFLOW 
 DATE: 09 03 1995              CUMULATIVE TIME STEP:       3
 MODFLOW STRESS PERIOD     61     CURRENT TIME STEP:    1799     ITERATIONS:       7

 -----------------------------------------------------------------------------------

   CUMULATIVE VOLUMES               L**3   RATES FOR THIS TIME STEP           L**3/T
   ------------------                      ------------------------

                                     IN                                         IN
                                     --                                         --
        PRECIPITATION =        1.3351D+08          PRECIPITATION =                  
           STREAMFLOW =                               STREAMFLOW =                  
     GW BOUNDARY FLOW =           5413.56       GW BOUNDARY FLOW =              3.28


                                    OUT                                        OUT
                                    ---                                        ---
   EVAPOTRANSPIRATION =        7.4163D+07     EVAPOTRANSPIRATION =          75700.70
           STREAMFLOW =        7.0059D+07             STREAMFLOW =          12492.53
     GW BOUNDARY FLOW =          51437.41       GW BOUNDARY FLOW =             25.09

   INFLOWS - OUTFLOWS =       -1.0760D+07     INFLOWS - OUTFLOWS =         -88215.04
             --------                                   --------

 TOTAL STORAGE CHANGE =       -1.0752D+07         STORAGE CHANGE =         -88223.51
       --------------                             --------------
         LAND SURFACE =         275471.38           LAND SURFACE =         -15477.21
            SOIL ZONE =        2073060.44              SOIL ZONE =         -57167.85
     UNSATURATED ZONE =          16698.81       UNSATURATED ZONE =         -10278.62
       SATURATED ZONE =       -1.3117D+07         SATURATED ZONE =          -5299.83

 OVERALL BUDGET ERROR =          -7513.64           BUDGET ERROR =              8.48


  PERCENT DISCREPANCY =             -0.01    PERCENT DISCREPANCY =              0.01



1
 SUMMARY VOLUMETRIC BUDGET FOR GSFLOW 
 DATE: 09 10 1995              CUMULATIVE TIME STEP:      10
 MODFLOW STRESS PERIOD     61     CURRENT TIME STEP:    1806     ITERATIONS:       6

 -----------------------------------------------------------------------------------

   CUMULATIVE VOLUMES               L**3   RATES FOR THIS TIME STEP           L**3/T
   ------------------                      ------------------------

                                     IN                                         IN
                                     --                                         --
        PRECIPITATION =        1.3351D+08          PRECIPITATION =                  
           STREAMFLOW =                               STREAMFLOW =                  
     GW BOUNDARY FLOW =           5436.93       GW BOUNDARY FLOW =              3.38


                                    OUT                                        OUT
                                    ---                                        ---
   EVAPOTRANSPIRATION =        7.4591D+07     EVAPOTRANSPIRATION =          57385.95
           STREAMFLOW =        7.0143D+07             STREAMFLOW =          11797.60
     GW BOUNDARY FLOW =          51612.83       GW BOUNDARY FLOW =             25.04

   INFLOWS - OUTFLOWS =       -1.1272D+07     INFLOWS - OUTFLOWS =         -69205.20
             --------                                   --------

 TOTAL STORAGE CHANGE =       -1.1265D+07         STORAGE CHANGE =         -69219.26
       --------------                             --------------
         LAND SURFACE =         195534.25           LAND SURFACE =          -9902.88
            SOIL ZONE =        1747985.71              SOIL ZONE =         -43562.05
     UNSATURATED ZONE =         -53896.79       UNSATURATED ZONE =          -9971.90
       SATURATED ZONE =       -1.3154D+07         SATURATED ZONE =          -5782.43

 OVERALL BUDGET ERROR =          -7449.30           BUDGET ERROR =             14.06


  PERCENT DISCREPANCY =             -0.01    PERCENT DISCREPANCY =              0.02



1
 SUMMARY VOLUMETRIC BUDGET FOR GSFLOW 
 DATE: 09 17 1995              CUMULATIVE TIME STEP:      17
 MODFLOW STRESS PERIOD     61     CURRENT TIME STEP:    1813     ITERATIONS:       7

 -----------------------------------------------------------------------------------

   CUMULATIVE VOLUMES               L**3   RATES FOR THIS TIME STEP           L**3/T
   ------------------                      ------------------------

                                     IN                                         IN
                                     --                                         --
        PRECIPITATION =        1.3351D+08          PRECIPITATION =                  
           STREAMFLOW =                               STREAMFLOW =                  
     GW BOUNDARY FLOW =           5461.04       GW BOUNDARY FLOW =              3.49


                                    OUT                                        OUT
                                    ---                                        ---
   EVAPOTRANSPIRATION =        7.5059D+07     EVAPOTRANSPIRATION =          53960.77
           STREAMFLOW =        7.0221D+07             STREAMFLOW =          10982.95
     GW BOUNDARY FLOW =          51787.84       GW BOUNDARY FLOW =             24.98

   INFLOWS - OUTFLOWS =       -1.1818D+07     INFLOWS - OUTFLOWS =         -64965.21
             --------                                   --------

 TOTAL STORAGE CHANGE =       -1.1811D+07         STORAGE CHANGE =         -64970.61
       --------------                             --------------
         LAND SURFACE =         125688.76           LAND SURFACE =          -7368.86
            SOIL ZONE =        1395208.37              SOIL ZONE =         -41187.80
     UNSATURATED ZONE =        -123826.77       UNSATURATED ZONE =          -9434.25
       SATURATED ZONE =       -1.3208D+07         SATURATED ZONE =          -6979.70

 OVERALL BUDGET ERROR =          -7394.26           BUDGET ERROR =              5.40


  PERCENT DISCREPANCY =             -0.01    PERCENT DISCREPANCY =              0.01



1
 SUMMARY VOLUMETRIC BUDGET FOR GSFLOW 
 DATE: 09 24 1995              CUMULATIVE TIME STEP:      24
 MODFLOW STRESS PERIOD     61     CURRENT TIME STEP:    1820     ITERATIONS:       6

 -----------------------------------------------------------------------------------

   CUMULATIVE VOLUMES               L**3   RATES FOR THIS TIME STEP           L**3/T
   ------------------                      ------------------------

                                     IN                                         IN
                                     --                                         --
        PRECIPITATION =        1.3351D+08          PRECIPITATION =                  
           STREAMFLOW =                               STREAMFLOW =                  
     GW BOUNDARY FLOW =           5485.84       GW BOUNDARY FLOW =              3.58


                                    OUT                                        OUT
                                    ---                                        ---
   EVAPOTRANSPIRATION =        7.5398D+07     EVAPOTRANSPIRATION =          35190.18
           STREAMFLOW =        7.0297D+07             STREAMFLOW =          10719.61
     GW BOUNDARY FLOW =          51962.50       GW BOUNDARY FLOW =             24.94

   INFLOWS - OUTFLOWS =       -1.2233D+07     INFLOWS - OUTFLOWS =         -45931.14
             --------                                   --------

 TOTAL STORAGE CHANGE =       -1.2225D+07         STORAGE CHANGE =         -45939.13
       --------------                             --------------
         LAND SURFACE =          83575.75           LAND SURFACE =          -4151.84
            SOIL ZONE =        1139416.42              SOIL ZONE =         -26085.46
     UNSATURATED ZONE =        -188928.46       UNSATURATED ZONE =          -9018.93
       SATURATED ZONE =       -1.3260D+07         SATURATED ZONE =          -6682.90

 OVERALL BUDGET ERROR =          -7344.63           BUDGET ERROR =              7.99


  PERCENT DISCREPANCY =             -0.01    PERCENT DISCREPANCY =              0.02



1
 SUMMARY VOLUMETRIC BUDGET FOR GSFLOW 
 DATE: 10 01 1995              CUMULATIVE TIME STEP:       1
 MODFLOW STRESS PERIOD     62     CURRENT TIME STEP:    1827     ITERATIONS:       7

 -----------------------------------------------------------------------------------

   CUMULATIVE VOLUMES               L**3   RATES FOR THIS TIME STEP           L**3/T
   ------------------                      ------------------------

                                     IN                                         IN
                                     --                                         --
        PRECIPITATION =        1.3351D+08          PRECIPITATION =                  
           STREAMFLOW =                               STREAMFLOW =                  
     GW BOUNDARY FLOW =           5511.30       GW BOUNDARY FLOW =              3.68


                                    OUT                                        OUT
                                    ---                                        ---
   EVAPOTRANSPIRATION =        7.5538D+07     EVAPOTRANSPIRATION =          21019.58
           STREAMFLOW =        7.0372D+07             STREAMFLOW =          10745.60
     GW BOUNDARY FLOW =          52136.99       GW BOUNDARY FLOW =             24.92

   INFLOWS - OUTFLOWS =       -1.2449D+07     INFLOWS - OUTFLOWS =         -31786.41
             --------                                   --------

 TOTAL STORAGE CHANGE =       -1.2441D+07         STORAGE CHANGE =         -31789.43
       --------------                             --------------
         LAND SURFACE =          66318.88           LAND SURFACE =          -2095.26
            SOIL ZONE =        1038264.17              SOIL ZONE =         -15402.68
     UNSATURATED ZONE =        -246931.74       UNSATURATED ZONE =          -8229.44
       SATURATED ZONE =       -1.3299D+07         SATURATED ZONE =          -6062.05

 OVERALL BUDGET ERROR =          -7308.53           BUDGET ERROR =              3.02


  PERCENT DISCREPANCY =             -0.01    PERCENT DISCREPANCY =              0.01



1
 SUMMARY VOLUMETRIC BUDGET FOR GSFLOW 
 DATE: 10 08 1995              CUMULATIVE TIME STEP:       8
 MODFLOW STRESS PERIOD     62     CURRENT TIME STEP:    1834     ITERATIONS:       6

 -----------------------------------------------------------------------------------

   CUMULATIVE VOLUMES               L**3   RATES FOR THIS TIME STEP           L**3/T
   ------------------                      ------------------------

                                     IN                                         IN
                                     --                                         --
        PRECIPITATION =        1.3351D+08          PRECIPITATION =                  
           STREAMFLOW =                               STREAMFLOW =                  
     GW BOUNDARY FLOW =           5537.37       GW BOUNDARY FLOW =              3.76


                                    OUT                                        OUT
                                    ---                                        ---
   EVAPOTRANSPIRATION =        7.5701D+07     EVAPOTRANSPIRATION =          20264.23
           STREAMFLOW =        7.0446D+07             STREAMFLOW =          10509.80
     GW BOUNDARY FLOW =          52311.29       GW BOUNDARY FLOW =             24.89

   INFLOWS - OUTFLOWS =       -1.2685D+07     INFLOWS - OUTFLOWS =         -30795.17
             --------                                   --------

 TOTAL STORAGE CHANGE =       -1.2678D+07         STORAGE CHANGE =         -30799.80
       --------------                             --------------
         LAND SURFACE =          51558.66           LAND SURFACE =          -1742.43
            SOIL ZONE =         920066.06              SOIL ZONE =         -14544.48
     UNSATURATED ZONE =        -304722.04       UNSATURATED ZONE =          -8074.37
       SATURATED ZONE =       -1.3345D+07         SATURATED ZONE =          -6438.52

 OVERALL BUDGET ERROR =          -7275.25           BUDGET ERROR =              4.63


  PERCENT DISCREPANCY =             -0.00    PERCENT DISCREPANCY =              0.02



1
 SUMMARY VOLUMETRIC BUDGET FOR GSFLOW 
 DATE: 10 15 1995              CUMULATIVE TIME STEP:      15
 MODFLOW STRESS PERIOD     62     CURRENT TIME STEP:    1841     ITERATIONS:       5

 -----------------------------------------------------------------------------------

   CUMULATIVE VOLUMES               L**3   RATES FOR THIS TIME STEP           L**3/T
   ------------------                      ------------------------

                                     IN                                         IN
                                     --                                         --
        PRECIPITATION =        1.3351D+08          PRECIPITATION =                  
           STREAMFLOW =                               STREAMFLOW =                  
     GW BOUNDARY FLOW =           5563.99       GW BOUNDARY FLOW =              3.84


                                    OUT                                        OUT
                                    ---                                        ---
   EVAPOTRANSPIRATION =        7.5858D+07     EVAPOTRANSPIRATION =          25126.38
           STREAMFLOW =        7.0518D+07             STREAMFLOW =          10176.59
     GW BOUNDARY FLOW =          52485.41       GW BOUNDARY FLOW =             24.86

   INFLOWS - OUTFLOWS =       -1.2915D+07     INFLOWS - OUTFLOWS =         -35324.00
             --------                                   --------

 TOTAL STORAGE CHANGE =       -1.2908D+07         STORAGE CHANGE =         -35330.16
       --------------                             --------------
         LAND SURFACE =          38802.94           LAND SURFACE =          -1819.31
            SOIL ZONE =         807599.21              SOIL ZONE =         -17750.16
     UNSATURATED ZONE =        -360279.14       UNSATURATED ZONE =          -8036.15
       SATURATED ZONE =       -1.3394D+07         SATURATED ZONE =          -7724.54

 OVERALL BUDGET ERROR =          -7242.73           BUDGET ERROR =              6.17


  PERCENT DISCREPANCY =             -0.00    PERCENT DISCREPANCY =              0.02



1
 SUMMARY VOLUMETRIC BUDGET FOR GSFLOW 
 DATE: 10 22 1995              CUMULATIVE TIME STEP:      22
 MODFLOW STRESS PERIOD     62     CURRENT TIME STEP:    1848     ITERATIONS:       6

 -----------------------------------------------------------------------------------

   CUMULATIVE VOLUMES               L**3   RATES FOR THIS TIME STEP           L**3/T
   ------------------                      ------------------------

                                     IN                                         IN
                                     --                                         --
        PRECIPITATION =        1.3351D+08          PRECIPITATION =                  
           STREAMFLOW =                               STREAMFLOW =                  
     GW BOUNDARY FLOW =           5591.11       GW BOUNDARY FLOW =              3.90


                                    OUT                                        OUT
                                    ---                                        ---
   EVAPOTRANSPIRATION =        7.5999D+07     EVAPOTRANSPIRATION =           5887.29
           STREAMFLOW =        7.0589D+07             STREAMFLOW =          10406.14
     GW BOUNDARY FLOW =          52659.36       GW BOUNDARY FLOW =             24.85

   INFLOWS - OUTFLOWS =       -1.3127D+07     INFLOWS - OUTFLOWS =         -16314.37
             --------                                   --------

 TOTAL STORAGE CHANGE =       -1.3120D+07         STORAGE CHANGE =         -16316.47
       --------------                             --------------
         LAND SURFACE =          28999.83           LAND SURFACE =           -464.23
            SOIL ZONE =         710328.01              SOIL ZONE =          -4013.35
     UNSATURATED ZONE =        -413582.85       UNSATURATED ZONE =          -6642.89
       SATURATED ZONE =       -1.3446D+07         SATURATED ZONE =          -5196.00

 OVERALL BUDGET ERROR =          -7217.18           BUDGET ERROR =              2.10


  PERCENT DISCREPANCY =             -0.00    PERCENT DISCREPANCY =              0.01



1
 SUMMARY VOLUMETRIC BUDGET FOR GSFLOW 
 DATE: 10 29 1995              CUMULATIVE TIME STEP:      29
 MODFLOW STRESS PERIOD     62     CURRENT TIME STEP:    1855     ITERATIONS:       9

 -----------------------------------------------------------------------------------

   CUMULATIVE VOLUMES               L**3   RATES FOR THIS TIME STEP           L**3/T
   ------------------                      ------------------------

                                     IN                                         IN
                                     --                                         --
        PRECIPITATION =        1.3351D+08          PRECIPITATION =                  
           STREAMFLOW =                               STREAMFLOW =                  
     GW BOUNDARY FLOW =           5618.81       GW BOUNDARY FLOW =              3.99


                                    OUT                                        OUT
                                    ---                                        ---
   EVAPOTRANSPIRATION =        7.6084D+07     EVAPOTRANSPIRATION =          14721.14
           STREAMFLOW =        7.0661D+07             STREAMFLOW =          10025.21
     GW BOUNDARY FLOW =          52832.78       GW BOUNDARY FLOW =             24.74

   INFLOWS - OUTFLOWS =       -1.3283D+07     INFLOWS - OUTFLOWS =         -24767.09
             --------                                   --------

 TOTAL STORAGE CHANGE =       -1.3276D+07         STORAGE CHANGE =         -24767.29
       --------------                             --------------
         LAND SURFACE =          24723.88           LAND SURFACE =           -960.36
            SOIL ZONE =         652800.30              SOIL ZONE =          -9674.55
     UNSATURATED ZONE =        -461845.39       UNSATURATED ZONE =          -6893.22
       SATURATED ZONE =       -1.3492D+07         SATURATED ZONE =          -7239.17

 OVERALL BUDGET ERROR =          -7204.08           BUDGET ERROR =              0.20


  PERCENT DISCREPANCY =             -0.00    PERCENT DISCREPANCY =              0.00



