1
 SUMMARY VOLUMETRIC BUDGET FOR GSFLOW 
 DATE: 10 07 1990              CUMULATIVE TIME STEP:       7
 MODFLOW STRESS PERIOD      2     CURRENT TIME STEP:       7     ITERATIONS:       7

 -----------------------------------------------------------------------------------

   CUMULATIVE VOLUMES               L**3   RATES FOR THIS TIME STEP           L**3/T
   ------------------                      ------------------------

                                     IN                                         IN
                                     --                                         --
        PRECIPITATION =                            PRECIPITATION =                  
           STREAMFLOW =                               STREAMFLOW =                  
     GW BOUNDARY FLOW =                         GW BOUNDARY FLOW =                  


                                    OUT                                        OUT
                                    ---                                        ---
   EVAPOTRANSPIRATION =         381242.21     EVAPOTRANSPIRATION =          12556.47
           STREAMFLOW =          46416.71             STREAMFLOW =           8185.43
     GW BOUNDARY FLOW =            252.80       GW BOUNDARY FLOW =             36.30

   INFLOWS - OUTFLOWS =        -427911.73     INFLOWS - OUTFLOWS =         -20778.20
             --------                                   --------

 TOTAL STORAGE CHANGE =        -426450.73         STORAGE CHANGE =         -20749.96
       --------------                             --------------
         LAND SURFACE =                             LAND SURFACE =                  
            SOIL ZONE =         -33344.15              SOIL ZONE =          -1004.88
     UNSATURATED ZONE =        -499598.40       UNSATURATED ZONE =         -34029.42
       SATURATED ZONE =         106491.83         SATURATED ZONE =          14284.34

 OVERALL BUDGET ERROR =          -1460.99           BUDGET ERROR =            -28.24


  PERCENT DISCREPANCY =             -0.34    PERCENT DISCREPANCY =             -0.14



1
 SUMMARY VOLUMETRIC BUDGET FOR GSFLOW 
 DATE: 10 14 1990              CUMULATIVE TIME STEP:      14
 MODFLOW STRESS PERIOD      2     CURRENT TIME STEP:      14     ITERATIONS:       8

 -----------------------------------------------------------------------------------

   CUMULATIVE VOLUMES               L**3   RATES FOR THIS TIME STEP           L**3/T
   ------------------                      ------------------------

                                     IN                                         IN
                                     --                                         --
        PRECIPITATION =                            PRECIPITATION =                  
           STREAMFLOW =                               STREAMFLOW =                  
     GW BOUNDARY FLOW =                         GW BOUNDARY FLOW =                  


                                    OUT                                        OUT
                                    ---                                        ---
   EVAPOTRANSPIRATION =         659586.21     EVAPOTRANSPIRATION =          42743.02
           STREAMFLOW =         100743.84             STREAMFLOW =           7179.45
     GW BOUNDARY FLOW =            506.63       GW BOUNDARY FLOW =             36.23

   INFLOWS - OUTFLOWS =        -760836.68     INFLOWS - OUTFLOWS =         -49958.71
             --------                                   --------

 TOTAL STORAGE CHANGE =        -759085.75         STORAGE CHANGE =         -49936.15
       --------------                             --------------
         LAND SURFACE =                             LAND SURFACE =                  
            SOIL ZONE =         -58148.69              SOIL ZONE =          -4431.08
     UNSATURATED ZONE =        -873588.98       UNSATURATED ZONE =         -52603.32
       SATURATED ZONE =         172651.91         SATURATED ZONE =           7098.26

 OVERALL BUDGET ERROR =          -1750.93           BUDGET ERROR =            -22.56


  PERCENT DISCREPANCY =             -0.23    PERCENT DISCREPANCY =             -0.05



1
 SUMMARY VOLUMETRIC BUDGET FOR GSFLOW 
 DATE: 10 21 1990              CUMULATIVE TIME STEP:      21
 MODFLOW STRESS PERIOD      2     CURRENT TIME STEP:      21     ITERATIONS:       6

 -----------------------------------------------------------------------------------

   CUMULATIVE VOLUMES               L**3   RATES FOR THIS TIME STEP           L**3/T
   ------------------                      ------------------------

                                     IN                                         IN
                                     --                                         --
        PRECIPITATION =         188432.87          PRECIPITATION =                  
           STREAMFLOW =                               STREAMFLOW =                  
     GW BOUNDARY FLOW =                         GW BOUNDARY FLOW =                  


                                    OUT                                        OUT
                                    ---                                        ---
   EVAPOTRANSPIRATION =         802138.63     EVAPOTRANSPIRATION =          37265.41
           STREAMFLOW =         163686.05             STREAMFLOW =          10144.09
     GW BOUNDARY FLOW =            760.82       GW BOUNDARY FLOW =             36.37

   INFLOWS - OUTFLOWS =        -778152.63     INFLOWS - OUTFLOWS =         -47445.87
             --------                                   --------

 TOTAL STORAGE CHANGE =        -777149.58         STORAGE CHANGE =         -47305.19
       --------------                             --------------
         LAND SURFACE =          15977.62           LAND SURFACE =         -34861.64
            SOIL ZONE =          55582.97              SOIL ZONE =          -1273.96
     UNSATURATED ZONE =       -1085701.88       UNSATURATED ZONE =         -21899.49
       SATURATED ZONE =         236991.70         SATURATED ZONE =          10729.90

 OVERALL BUDGET ERROR =          -1003.04           BUDGET ERROR =           -140.67


  PERCENT DISCREPANCY =             -0.10    PERCENT DISCREPANCY =             -0.30



1
 SUMMARY VOLUMETRIC BUDGET FOR GSFLOW 
 DATE: 10 28 1990              CUMULATIVE TIME STEP:      28
 MODFLOW STRESS PERIOD      2     CURRENT TIME STEP:      28     ITERATIONS:       7

 -----------------------------------------------------------------------------------

   CUMULATIVE VOLUMES               L**3   RATES FOR THIS TIME STEP           L**3/T
   ------------------                      ------------------------

                                     IN                                         IN
                                     --                                         --
        PRECIPITATION =         188432.87          PRECIPITATION =                  
           STREAMFLOW =                               STREAMFLOW =                  
     GW BOUNDARY FLOW =                         GW BOUNDARY FLOW =                  


                                    OUT                                        OUT
                                    ---                                        ---
   EVAPOTRANSPIRATION =         927962.47     EVAPOTRANSPIRATION =          11160.88
           STREAMFLOW =         225448.70             STREAMFLOW =           9010.08
     GW BOUNDARY FLOW =           1014.01       GW BOUNDARY FLOW =             36.13

   INFLOWS - OUTFLOWS =        -965992.31     INFLOWS - OUTFLOWS =         -20207.09
             --------                                   --------

 TOTAL STORAGE CHANGE =        -964449.40         STORAGE CHANGE =         -20206.75
       --------------                             --------------
         LAND SURFACE =                             LAND SURFACE =                  
            SOIL ZONE =          26397.57              SOIL ZONE =          -3302.49
     UNSATURATED ZONE =       -1270346.49       UNSATURATED ZONE =         -23186.20
       SATURATED ZONE =         279499.52         SATURATED ZONE =           6281.94

 OVERALL BUDGET ERROR =          -1542.92           BUDGET ERROR =             -0.34


  PERCENT DISCREPANCY =             -0.13    PERCENT DISCREPANCY =             -0.00



1
 SUMMARY VOLUMETRIC BUDGET FOR GSFLOW 
 DATE: 11 04 1990              CUMULATIVE TIME STEP:       4
 MODFLOW STRESS PERIOD      3     CURRENT TIME STEP:      35     ITERATIONS:       6

 -----------------------------------------------------------------------------------

   CUMULATIVE VOLUMES               L**3   RATES FOR THIS TIME STEP           L**3/T
   ------------------                      ------------------------

                                     IN                                         IN
                                     --                                         --
        PRECIPITATION =         703113.06          PRECIPITATION =                  
           STREAMFLOW =                               STREAMFLOW =                  
     GW BOUNDARY FLOW =                         GW BOUNDARY FLOW =                  


                                    OUT                                        OUT
                                    ---                                        ---
   EVAPOTRANSPIRATION =         987707.83     EVAPOTRANSPIRATION =          26159.26
           STREAMFLOW =         296711.38             STREAMFLOW =          10674.48
     GW BOUNDARY FLOW =           1267.08       GW BOUNDARY FLOW =             36.14

   INFLOWS - OUTFLOWS =        -582573.22     INFLOWS - OUTFLOWS =         -36869.88
             --------                                   --------

 TOTAL STORAGE CHANGE =        -584723.33         STORAGE CHANGE =         -37770.70
       --------------                             --------------
         LAND SURFACE =          71009.70           LAND SURFACE =         -84159.07
            SOIL ZONE =         419927.21              SOIL ZONE =          57059.03
     UNSATURATED ZONE =       -1416255.72       UNSATURATED ZONE =         -20123.52
       SATURATED ZONE =         340595.48         SATURATED ZONE =           9452.86

 OVERALL BUDGET ERROR =           2150.11           BUDGET ERROR =            900.82


  PERCENT DISCREPANCY =              0.17    PERCENT DISCREPANCY =              2.41



1
 SUMMARY VOLUMETRIC BUDGET FOR GSFLOW 
 DATE: 11 11 1990              CUMULATIVE TIME STEP:      11
 MODFLOW STRESS PERIOD      3     CURRENT TIME STEP:      42     ITERATIONS:       6

 -----------------------------------------------------------------------------------

   CUMULATIVE VOLUMES               L**3   RATES FOR THIS TIME STEP           L**3/T
   ------------------                      ------------------------

                                     IN                                         IN
                                     --                                         --
        PRECIPITATION =         703113.06          PRECIPITATION =                  
           STREAMFLOW =                               STREAMFLOW =                  
     GW BOUNDARY FLOW =                         GW BOUNDARY FLOW =                  


                                    OUT                                        OUT
                                    ---                                        ---
   EVAPOTRANSPIRATION =        1061439.53     EVAPOTRANSPIRATION =          12407.03
           STREAMFLOW =         367948.54             STREAMFLOW =           9673.27
     GW BOUNDARY FLOW =           1519.19       GW BOUNDARY FLOW =             35.93

   INFLOWS - OUTFLOWS =        -727794.19     INFLOWS - OUTFLOWS =         -22116.23
             --------                                   --------

 TOTAL STORAGE CHANGE =        -729651.96         STORAGE CHANGE =         -22062.81
       --------------                             --------------
         LAND SURFACE =            295.92           LAND SURFACE =           -859.89
            SOIL ZONE =         436201.50              SOIL ZONE =          -6128.89
     UNSATURATED ZONE =       -1556439.31       UNSATURATED ZONE =         -20019.83
       SATURATED ZONE =         390289.94         SATURATED ZONE =           4945.79

 OVERALL BUDGET ERROR =           1857.77           BUDGET ERROR =            -53.43


  PERCENT DISCREPANCY =              0.13    PERCENT DISCREPANCY =             -0.24



1
 SUMMARY VOLUMETRIC BUDGET FOR GSFLOW 
 DATE: 11 18 1990              CUMULATIVE TIME STEP:      18
 MODFLOW STRESS PERIOD      3     CURRENT TIME STEP:      49     ITERATIONS:       6

 -----------------------------------------------------------------------------------

   CUMULATIVE VOLUMES               L**3   RATES FOR THIS TIME STEP           L**3/T
   ------------------                      ------------------------

                                     IN                                         IN
                                     --                                         --
        PRECIPITATION =         747883.35          PRECIPITATION =                  
           STREAMFLOW =                               STREAMFLOW =                  
     GW BOUNDARY FLOW =                         GW BOUNDARY FLOW =                  


                                    OUT                                        OUT
                                    ---                                        ---
   EVAPOTRANSPIRATION =        1131089.28     EVAPOTRANSPIRATION =           5463.40
           STREAMFLOW =         439967.48             STREAMFLOW =          10716.37
     GW BOUNDARY FLOW =           1770.51       GW BOUNDARY FLOW =             35.88

   INFLOWS - OUTFLOWS =        -824943.91     INFLOWS - OUTFLOWS =         -16215.66
             --------                                   --------

 TOTAL STORAGE CHANGE =        -826589.19         STORAGE CHANGE =         -16187.58
       --------------                             --------------
         LAND SURFACE =          10077.61           LAND SURFACE =          -4199.79
            SOIL ZONE =         418281.96              SOIL ZONE =           -685.79
     UNSATURATED ZONE =       -1690329.98       UNSATURATED ZONE =         -18690.24
       SATURATED ZONE =         435381.22         SATURATED ZONE =           7388.23

 OVERALL BUDGET ERROR =           1645.28           BUDGET ERROR =            -28.07


  PERCENT DISCREPANCY =              0.10    PERCENT DISCREPANCY =             -0.17



1
 SUMMARY VOLUMETRIC BUDGET FOR GSFLOW 
 DATE: 11 25 1990              CUMULATIVE TIME STEP:      25
 MODFLOW STRESS PERIOD      3     CURRENT TIME STEP:      56     ITERATIONS:       6

 -----------------------------------------------------------------------------------

   CUMULATIVE VOLUMES               L**3   RATES FOR THIS TIME STEP           L**3/T
   ------------------                      ------------------------

                                     IN                                         IN
                                     --                                         --
        PRECIPITATION =        1009043.38          PRECIPITATION =         186542.88
           STREAMFLOW =                               STREAMFLOW =                  
     GW BOUNDARY FLOW =                         GW BOUNDARY FLOW =                  


                                    OUT                                        OUT
                                    ---                                        ---
   EVAPOTRANSPIRATION =        1192050.04     EVAPOTRANSPIRATION =           3813.07
           STREAMFLOW =         516171.40             STREAMFLOW =          10913.78
     GW BOUNDARY FLOW =           2021.46       GW BOUNDARY FLOW =             35.79

   INFLOWS - OUTFLOWS =        -701199.53     INFLOWS - OUTFLOWS =         171780.23
             --------                                   --------

 TOTAL STORAGE CHANGE =        -704430.89         STORAGE CHANGE =         170222.88
       --------------                             --------------
         LAND SURFACE =          92124.67           LAND SURFACE =          75233.82
            SOIL ZONE =         536595.69              SOIL ZONE =         106576.74
     UNSATURATED ZONE =       -1818423.30       UNSATURATED ZONE =         -17982.49
       SATURATED ZONE =         485272.05         SATURATED ZONE =           6394.80

 OVERALL BUDGET ERROR =           3231.36           BUDGET ERROR =           1557.36


  PERCENT DISCREPANCY =              0.19    PERCENT DISCREPANCY =              0.84



1
 SUMMARY VOLUMETRIC BUDGET FOR GSFLOW 
 DATE: 12 02 1990              CUMULATIVE TIME STEP:       2
 MODFLOW STRESS PERIOD      4     CURRENT TIME STEP:      63     ITERATIONS:       6

 -----------------------------------------------------------------------------------

   CUMULATIVE VOLUMES               L**3   RATES FOR THIS TIME STEP           L**3/T
   ------------------                      ------------------------

                                     IN                                         IN
                                     --                                         --
        PRECIPITATION =        1449284.55          PRECIPITATION =                  
           STREAMFLOW =                               STREAMFLOW =                  
     GW BOUNDARY FLOW =                         GW BOUNDARY FLOW =                  


                                    OUT                                        OUT
                                    ---                                        ---
   EVAPOTRANSPIRATION =        1199647.18     EVAPOTRANSPIRATION =            377.09
           STREAMFLOW =         593608.69             STREAMFLOW =          11102.64
     GW BOUNDARY FLOW =           2271.95       GW BOUNDARY FLOW =             35.77

   INFLOWS - OUTFLOWS =        -346243.27     INFLOWS - OUTFLOWS =         -11515.49
             --------                                   --------

 TOTAL STORAGE CHANGE =        -350222.47         STORAGE CHANGE =         -11515.05
       --------------                             --------------
         LAND SURFACE =         493448.43           LAND SURFACE =           -453.37
            SOIL ZONE =         567505.08              SOIL ZONE =            130.88
     UNSATURATED ZONE =       -1941699.89       UNSATURATED ZONE =         -17317.84
       SATURATED ZONE =         530523.92         SATURATED ZONE =           6125.28

 OVERALL BUDGET ERROR =           3979.20           BUDGET ERROR =             -0.44


  PERCENT DISCREPANCY =              0.22    PERCENT DISCREPANCY =             -0.00



1
 SUMMARY VOLUMETRIC BUDGET FOR GSFLOW 
 DATE: 12 09 1990              CUMULATIVE TIME STEP:       9
 MODFLOW STRESS PERIOD      4     CURRENT TIME STEP:      70     ITERATIONS:       6

 -----------------------------------------------------------------------------------

   CUMULATIVE VOLUMES               L**3   RATES FOR THIS TIME STEP           L**3/T
   ------------------                      ------------------------

                                     IN                                         IN
                                     --                                         --
        PRECIPITATION =        1449284.55          PRECIPITATION =                  
           STREAMFLOW =                               STREAMFLOW =                  
     GW BOUNDARY FLOW =                         GW BOUNDARY FLOW =                  


                                    OUT                                        OUT
                                    ---                                        ---
   EVAPOTRANSPIRATION =        1278496.21     EVAPOTRANSPIRATION =          14224.98
           STREAMFLOW =         671526.29             STREAMFLOW =          10934.50
     GW BOUNDARY FLOW =           2521.92       GW BOUNDARY FLOW =             35.65

   INFLOWS - OUTFLOWS =        -503259.87     INFLOWS - OUTFLOWS =         -25195.12
             --------                                   --------

 TOTAL STORAGE CHANGE =        -510334.33         STORAGE CHANGE =         -25225.88
       --------------                             --------------
         LAND SURFACE =          66382.65           LAND SURFACE =         -46525.52
            SOIL ZONE =         916021.75              SOIL ZONE =          33951.30
     UNSATURATED ZONE =       -2059923.10       UNSATURATED ZONE =         -16537.87
       SATURATED ZONE =         567184.36         SATURATED ZONE =           3886.22

 OVERALL BUDGET ERROR =           7074.47           BUDGET ERROR =             30.76


  PERCENT DISCREPANCY =              0.36    PERCENT DISCREPANCY =              0.12



1
 SUMMARY VOLUMETRIC BUDGET FOR GSFLOW 
 DATE: 12 16 1990              CUMULATIVE TIME STEP:      16
 MODFLOW STRESS PERIOD      4     CURRENT TIME STEP:      77     ITERATIONS:       6

 -----------------------------------------------------------------------------------

   CUMULATIVE VOLUMES               L**3   RATES FOR THIS TIME STEP           L**3/T
   ------------------                      ------------------------

                                     IN                                         IN
                                     --                                         --
        PRECIPITATION =        1804962.84          PRECIPITATION =                  
           STREAMFLOW =                               STREAMFLOW =                  
     GW BOUNDARY FLOW =                         GW BOUNDARY FLOW =                  


                                    OUT                                        OUT
                                    ---                                        ---
   EVAPOTRANSPIRATION =        1307161.42     EVAPOTRANSPIRATION =                  
           STREAMFLOW =         751408.93             STREAMFLOW =          11541.89
     GW BOUNDARY FLOW =           2771.33       GW BOUNDARY FLOW =             35.61

   INFLOWS - OUTFLOWS =        -256378.84     INFLOWS - OUTFLOWS =         -11577.50
             --------                                   --------

 TOTAL STORAGE CHANGE =        -265151.09         STORAGE CHANGE =         -11577.98
       --------------                             --------------
         LAND SURFACE =         256077.35           LAND SURFACE =                  
            SOIL ZONE =        1054339.98              SOIL ZONE =            -14.16
     UNSATURATED ZONE =       -2173641.75       UNSATURATED ZONE =         -15995.35
       SATURATED ZONE =         598073.33         SATURATED ZONE =           4431.54

 OVERALL BUDGET ERROR =           8772.25           BUDGET ERROR =              0.48


  PERCENT DISCREPANCY =              0.42    PERCENT DISCREPANCY =              0.00



1
 SUMMARY VOLUMETRIC BUDGET FOR GSFLOW 
 DATE: 12 23 1990              CUMULATIVE TIME STEP:      23
 MODFLOW STRESS PERIOD      4     CURRENT TIME STEP:      84     ITERATIONS:       6

 -----------------------------------------------------------------------------------

   CUMULATIVE VOLUMES               L**3   RATES FOR THIS TIME STEP           L**3/T
   ------------------                      ------------------------

                                     IN                                         IN
                                     --                                         --
        PRECIPITATION =        2276236.55          PRECIPITATION =                  
           STREAMFLOW =                               STREAMFLOW =                  
     GW BOUNDARY FLOW =              0.08       GW BOUNDARY FLOW =              0.04


                                    OUT                                        OUT
                                    ---                                        ---
   EVAPOTRANSPIRATION =        1308542.38     EVAPOTRANSPIRATION =                  
           STREAMFLOW =         832398.66             STREAMFLOW =          11592.26
     GW BOUNDARY FLOW =           3020.37       GW BOUNDARY FLOW =             35.57

   INFLOWS - OUTFLOWS =         132275.22     INFLOWS - OUTFLOWS =         -11627.79
             --------                                   --------

 TOTAL STORAGE CHANGE =         123509.18         STORAGE CHANGE =         -11627.41
       --------------                             --------------
         LAND SURFACE =         725980.65           LAND SURFACE =                  
            SOIL ZONE =        1054569.07              SOIL ZONE =             60.81
     UNSATURATED ZONE =       -2283157.78       UNSATURATED ZONE =         -15398.52
       SATURATED ZONE =         626117.25         SATURATED ZONE =           3710.29

 OVERALL BUDGET ERROR =           8766.03           BUDGET ERROR =             -0.38


  PERCENT DISCREPANCY =              0.39    PERCENT DISCREPANCY =             -0.00



1
 SUMMARY VOLUMETRIC BUDGET FOR GSFLOW 
 DATE: 12 30 1990              CUMULATIVE TIME STEP:      30
 MODFLOW STRESS PERIOD      4     CURRENT TIME STEP:      91     ITERATIONS:       5

 -----------------------------------------------------------------------------------

   CUMULATIVE VOLUMES               L**3   RATES FOR THIS TIME STEP           L**3/T
   ------------------                      ------------------------

                                     IN                                         IN
                                     --                                         --
        PRECIPITATION =        2276236.55          PRECIPITATION =                  
           STREAMFLOW =                               STREAMFLOW =                  
     GW BOUNDARY FLOW =              0.77       GW BOUNDARY FLOW =              0.14


                                    OUT                                        OUT
                                    ---                                        ---
   EVAPOTRANSPIRATION =        1309299.07     EVAPOTRANSPIRATION =                  
           STREAMFLOW =         913787.29             STREAMFLOW =          11654.54
     GW BOUNDARY FLOW =           3269.49       GW BOUNDARY FLOW =             35.60

   INFLOWS - OUTFLOWS =          49881.47     INFLOWS - OUTFLOWS =         -11690.00
             --------                                   --------

 TOTAL STORAGE CHANGE =          41130.03         STORAGE CHANGE =         -11687.55
       --------------                             --------------
         LAND SURFACE =         725228.16           LAND SURFACE =                  
            SOIL ZONE =        1055182.39              SOIL ZONE =            105.47
     UNSATURATED ZONE =       -2388781.85       UNSATURATED ZONE =         -14856.92
       SATURATED ZONE =         649501.33         SATURATED ZONE =           3063.90

 OVERALL BUDGET ERROR =           8751.44           BUDGET ERROR =             -2.45


  PERCENT DISCREPANCY =              0.39    PERCENT DISCREPANCY =             -0.02



1
 SUMMARY VOLUMETRIC BUDGET FOR GSFLOW 
 DATE: 01 06 1991              CUMULATIVE TIME STEP:       6
 MODFLOW STRESS PERIOD      5     CURRENT TIME STEP:      98     ITERATIONS:       5

 -----------------------------------------------------------------------------------

   CUMULATIVE VOLUMES               L**3   RATES FOR THIS TIME STEP           L**3/T
   ------------------                      ------------------------

                                     IN                                         IN
                                     --                                         --
        PRECIPITATION =        2276236.55          PRECIPITATION =                  
           STREAMFLOW =                               STREAMFLOW =                  
     GW BOUNDARY FLOW =              2.09       GW BOUNDARY FLOW =              0.22


                                    OUT                                        OUT
                                    ---                                        ---
   EVAPOTRANSPIRATION =        1332678.57     EVAPOTRANSPIRATION =           2596.69
           STREAMFLOW =         995783.16             STREAMFLOW =          11751.58
     GW BOUNDARY FLOW =           3519.37       GW BOUNDARY FLOW =             35.75

   INFLOWS - OUTFLOWS =         -55742.47     INFLOWS - OUTFLOWS =         -14383.80
             --------                                   --------

 TOTAL STORAGE CHANGE =         -66214.92         STORAGE CHANGE =         -14462.75
       --------------                             --------------
         LAND SURFACE =         620283.29           LAND SURFACE =          -6112.33
            SOIL ZONE =        1135739.56              SOIL ZONE =           3533.57
     UNSATURATED ZONE =       -2490444.36       UNSATURATED ZONE =         -14286.06
       SATURATED ZONE =         668206.59         SATURATED ZONE =           2402.08

 OVERALL BUDGET ERROR =          10472.45           BUDGET ERROR =             78.95


  PERCENT DISCREPANCY =              0.45    PERCENT DISCREPANCY =              0.55



1
 SUMMARY VOLUMETRIC BUDGET FOR GSFLOW 
 DATE: 01 13 1991              CUMULATIVE TIME STEP:      13
 MODFLOW STRESS PERIOD      5     CURRENT TIME STEP:     105     ITERATIONS:       6

 -----------------------------------------------------------------------------------

   CUMULATIVE VOLUMES               L**3   RATES FOR THIS TIME STEP           L**3/T
   ------------------                      ------------------------

                                     IN                                         IN
                                     --                                         --
        PRECIPITATION =        2596386.94          PRECIPITATION =          10327.43
           STREAMFLOW =                               STREAMFLOW =                  
     GW BOUNDARY FLOW =              4.02       GW BOUNDARY FLOW =              0.31


                                    OUT                                        OUT
                                    ---                                        ---
   EVAPOTRANSPIRATION =        1393370.16     EVAPOTRANSPIRATION =          17350.21
           STREAMFLOW =        1078233.68             STREAMFLOW =          11782.85
     GW BOUNDARY FLOW =           3769.60       GW BOUNDARY FLOW =             35.73

   INFLOWS - OUTFLOWS =         121017.51     INFLOWS - OUTFLOWS =         -18841.05
             --------                                   --------

 TOTAL STORAGE CHANGE =         106827.63         STORAGE CHANGE =         -19928.07
       --------------                             --------------
         LAND SURFACE =         586364.85           LAND SURFACE =        -135127.18
            SOIL ZONE =        1427142.40              SOIL ZONE =         127798.67
     UNSATURATED ZONE =       -2588059.60       UNSATURATED ZONE =         -13752.99
       SATURATED ZONE =         681379.98         SATURATED ZONE =           1153.43

 OVERALL BUDGET ERROR =          14189.89           BUDGET ERROR =           1087.02

  ***WARNING, FLUX RATES OFF > 3%

  PERCENT DISCREPANCY =              0.55    PERCENT DISCREPANCY =              3.66



1
 SUMMARY VOLUMETRIC BUDGET FOR GSFLOW 
 DATE: 01 20 1991              CUMULATIVE TIME STEP:      20
 MODFLOW STRESS PERIOD      5     CURRENT TIME STEP:     112     ITERATIONS:       5

 -----------------------------------------------------------------------------------

   CUMULATIVE VOLUMES               L**3   RATES FOR THIS TIME STEP           L**3/T
   ------------------                      ------------------------

                                     IN                                         IN
                                     --                                         --
        PRECIPITATION =        2596386.94          PRECIPITATION =                  
           STREAMFLOW =                               STREAMFLOW =                  
     GW BOUNDARY FLOW =              6.55       GW BOUNDARY FLOW =              0.40


                                    OUT                                        OUT
                                    ---                                        ---
   EVAPOTRANSPIRATION =        1464362.73     EVAPOTRANSPIRATION =           1903.04
           STREAMFLOW =        1161667.31             STREAMFLOW =          11922.05
     GW BOUNDARY FLOW =           4019.83       GW BOUNDARY FLOW =             35.75

   INFLOWS - OUTFLOWS =         -33656.38     INFLOWS - OUTFLOWS =         -13860.44
             --------                                   --------

 TOTAL STORAGE CHANGE =         -48366.30         STORAGE CHANGE =         -13843.66
       --------------                             --------------
         LAND SURFACE =         422210.58           LAND SURFACE =           -295.67
            SOIL ZONE =        1520239.61              SOIL ZONE =          -1547.32
     UNSATURATED ZONE =       -2681779.99       UNSATURATED ZONE =         -13163.44
       SATURATED ZONE =         690963.50         SATURATED ZONE =           1162.77

 OVERALL BUDGET ERROR =          14709.92           BUDGET ERROR =            -16.78


  PERCENT DISCREPANCY =              0.56    PERCENT DISCREPANCY =             -0.12



1
 SUMMARY VOLUMETRIC BUDGET FOR GSFLOW 
 DATE: 01 27 1991              CUMULATIVE TIME STEP:      27
 MODFLOW STRESS PERIOD      5     CURRENT TIME STEP:     119     ITERATIONS:       5

 -----------------------------------------------------------------------------------

   CUMULATIVE VOLUMES               L**3   RATES FOR THIS TIME STEP           L**3/T
   ------------------                      ------------------------

                                     IN                                         IN
                                     --                                         --
        PRECIPITATION =        2596386.94          PRECIPITATION =                  
           STREAMFLOW =                               STREAMFLOW =                  
     GW BOUNDARY FLOW =              9.65       GW BOUNDARY FLOW =              0.48


                                    OUT                                        OUT
                                    ---                                        ---
   EVAPOTRANSPIRATION =        1486429.40     EVAPOTRANSPIRATION =           1235.88
           STREAMFLOW =        1245092.87             STREAMFLOW =          11937.69
     GW BOUNDARY FLOW =           4270.00       GW BOUNDARY FLOW =             35.74

   INFLOWS - OUTFLOWS =        -139395.68     INFLOWS - OUTFLOWS =         -13208.83
             --------                                   --------

 TOTAL STORAGE CHANGE =        -154258.87         STORAGE CHANGE =         -13199.10
       --------------                             --------------
         LAND SURFACE =         394226.38           LAND SURFACE =           -109.80
            SOIL ZONE =        1526800.94              SOIL ZONE =          -1026.43
     UNSATURATED ZONE =       -2771971.33       UNSATURATED ZONE =         -12666.36
       SATURATED ZONE =         696685.14         SATURATED ZONE =            603.50

 OVERALL BUDGET ERROR =          14863.18           BUDGET ERROR =             -9.73


  PERCENT DISCREPANCY =              0.54    PERCENT DISCREPANCY =             -0.07



1
 SUMMARY VOLUMETRIC BUDGET FOR GSFLOW 
 DATE: 02 03 1991              CUMULATIVE TIME STEP:       3
 MODFLOW STRESS PERIOD      6     CURRENT TIME STEP:     126     ITERATIONS:       7

 -----------------------------------------------------------------------------------

   CUMULATIVE VOLUMES               L**3   RATES FOR THIS TIME STEP           L**3/T
   ------------------                      ------------------------

                                     IN                                         IN
                                     --                                         --
        PRECIPITATION =        3228422.31          PRECIPITATION =          30459.53
           STREAMFLOW =                               STREAMFLOW =                  
     GW BOUNDARY FLOW =             13.31       GW BOUNDARY FLOW =              0.55


                                    OUT                                        OUT
                                    ---                                        ---
   EVAPOTRANSPIRATION =        1588599.86     EVAPOTRANSPIRATION =          20451.39
           STREAMFLOW =        1329070.80             STREAMFLOW =          12157.33
     GW BOUNDARY FLOW =           4520.08       GW BOUNDARY FLOW =             35.73

   INFLOWS - OUTFLOWS =         306244.88     INFLOWS - OUTFLOWS =          -2184.37
             --------                                   --------

 TOTAL STORAGE CHANGE =         285705.59         STORAGE CHANGE =          -2431.17
       --------------                             --------------
         LAND SURFACE =         184727.70           LAND SURFACE =         -28670.24
            SOIL ZONE =        2260836.35              SOIL ZONE =          38310.29
     UNSATURATED ZONE =       -2858949.50       UNSATURATED ZONE =         -12277.60
       SATURATED ZONE =         699091.04         SATURATED ZONE =            206.39

 OVERALL BUDGET ERROR =          20539.29           BUDGET ERROR =            246.79


  PERCENT DISCREPANCY =              0.64    PERCENT DISCREPANCY =              0.75



1
 SUMMARY VOLUMETRIC BUDGET FOR GSFLOW 
 DATE: 02 10 1991              CUMULATIVE TIME STEP:      10
 MODFLOW STRESS PERIOD      6     CURRENT TIME STEP:     133     ITERATIONS:       5

 -----------------------------------------------------------------------------------

   CUMULATIVE VOLUMES               L**3   RATES FOR THIS TIME STEP           L**3/T
   ------------------                      ------------------------

                                     IN                                         IN
                                     --                                         --
        PRECIPITATION =        3510173.01          PRECIPITATION =                  
           STREAMFLOW =                               STREAMFLOW =                  
     GW BOUNDARY FLOW =             17.49       GW BOUNDARY FLOW =              0.63


                                    OUT                                        OUT
                                    ---                                        ---
   EVAPOTRANSPIRATION =        1755851.88     EVAPOTRANSPIRATION =          25850.51
           STREAMFLOW =        1414963.53             STREAMFLOW =          12197.01
     GW BOUNDARY FLOW =           4770.16       GW BOUNDARY FLOW =             35.72

   INFLOWS - OUTFLOWS =         334604.93     INFLOWS - OUTFLOWS =         -38082.61
             --------                                   --------

 TOTAL STORAGE CHANGE =         312143.37         STORAGE CHANGE =         -38034.26
       --------------                             --------------
         LAND SURFACE =          90050.80           LAND SURFACE =         -12330.62
            SOIL ZONE =        2466666.24              SOIL ZONE =         -13526.79
     UNSATURATED ZONE =       -2942498.21       UNSATURATED ZONE =         -11770.61
       SATURATED ZONE =         697924.55         SATURATED ZONE =           -406.24

 OVERALL BUDGET ERROR =          22461.55           BUDGET ERROR =            -48.35


  PERCENT DISCREPANCY =              0.64    PERCENT DISCREPANCY =             -0.13



1
 SUMMARY VOLUMETRIC BUDGET FOR GSFLOW 
 DATE: 02 17 1991              CUMULATIVE TIME STEP:      17
 MODFLOW STRESS PERIOD      6     CURRENT TIME STEP:     140     ITERATIONS:       6

 -----------------------------------------------------------------------------------

   CUMULATIVE VOLUMES               L**3   RATES FOR THIS TIME STEP           L**3/T
   ------------------                      ------------------------

                                     IN                                         IN
                                     --                                         --
        PRECIPITATION =        3510173.01          PRECIPITATION =                  
           STREAMFLOW =                               STREAMFLOW =                  
     GW BOUNDARY FLOW =             22.16       GW BOUNDARY FLOW =              0.70


                                    OUT                                        OUT
                                    ---                                        ---
   EVAPOTRANSPIRATION =        1999049.55     EVAPOTRANSPIRATION =          23197.54
           STREAMFLOW =        1498933.80             STREAMFLOW =          12059.06
     GW BOUNDARY FLOW =           5020.07       GW BOUNDARY FLOW =             35.68

   INFLOWS - OUTFLOWS =           7191.74     INFLOWS - OUTFLOWS =         -35291.58
             --------                                   --------

 TOTAL STORAGE CHANGE =         -15009.42         STORAGE CHANGE =         -35279.42
       --------------                             --------------
         LAND SURFACE =          18163.73           LAND SURFACE =          -1654.25
            SOIL ZONE =        2295281.81              SOIL ZONE =         -21637.03
     UNSATURATED ZONE =       -3022521.03       UNSATURATED ZONE =         -11126.70
       SATURATED ZONE =         694066.07         SATURATED ZONE =           -861.44

 OVERALL BUDGET ERROR =          22201.16           BUDGET ERROR =            -12.16


  PERCENT DISCREPANCY =              0.63    PERCENT DISCREPANCY =             -0.03



1
 SUMMARY VOLUMETRIC BUDGET FOR GSFLOW 
 DATE: 02 24 1991              CUMULATIVE TIME STEP:      24
 MODFLOW STRESS PERIOD      6     CURRENT TIME STEP:     147     ITERATIONS:       5

 -----------------------------------------------------------------------------------

   CUMULATIVE VOLUMES               L**3   RATES FOR THIS TIME STEP           L**3/T
   ------------------                      ------------------------

                                     IN                                         IN
                                     --                                         --
        PRECIPITATION =        3510173.01          PRECIPITATION =                  
           STREAMFLOW =                               STREAMFLOW =                  
     GW BOUNDARY FLOW =             27.30       GW BOUNDARY FLOW =              0.76


                                    OUT                                        OUT
                                    ---                                        ---
   EVAPOTRANSPIRATION =        2214670.78     EVAPOTRANSPIRATION =          21905.33
           STREAMFLOW =        1583091.37             STREAMFLOW =          11955.66
     GW BOUNDARY FLOW =           5268.99       GW BOUNDARY FLOW =             35.48

   INFLOWS - OUTFLOWS =        -292830.83     INFLOWS - OUTFLOWS =         -33895.71
             --------                                   --------

 TOTAL STORAGE CHANGE =        -314883.54         STORAGE CHANGE =         -33875.13
       --------------                             --------------
         LAND SURFACE =           6686.42           LAND SURFACE =           -239.07
            SOIL ZONE =        2091680.85              SOIL ZONE =         -21442.70
     UNSATURATED ZONE =       -3098688.02       UNSATURATED ZONE =         -10713.40
       SATURATED ZONE =         685437.20         SATURATED ZONE =          -1479.96

 OVERALL BUDGET ERROR =          22052.71           BUDGET ERROR =            -20.58


  PERCENT DISCREPANCY =              0.58    PERCENT DISCREPANCY =             -0.06



1
 SUMMARY VOLUMETRIC BUDGET FOR GSFLOW 
 DATE: 03 03 1991              CUMULATIVE TIME STEP:       3
 MODFLOW STRESS PERIOD      7     CURRENT TIME STEP:     154     ITERATIONS:       5

 -----------------------------------------------------------------------------------

   CUMULATIVE VOLUMES               L**3   RATES FOR THIS TIME STEP           L**3/T
   ------------------                      ------------------------

                                     IN                                         IN
                                     --                                         --
        PRECIPITATION =        6220189.63          PRECIPITATION =        1243187.24
           STREAMFLOW =                               STREAMFLOW =                  
     GW BOUNDARY FLOW =             32.91       GW BOUNDARY FLOW =              0.83


                                    OUT                                        OUT
                                    ---                                        ---
   EVAPOTRANSPIRATION =        2366461.36     EVAPOTRANSPIRATION =           7999.26
           STREAMFLOW =        1666474.18             STREAMFLOW =          12161.04
     GW BOUNDARY FLOW =           5516.68       GW BOUNDARY FLOW =             35.33

   INFLOWS - OUTFLOWS =        2181770.32     INFLOWS - OUTFLOWS =        1222992.44
             --------                                   --------

 TOTAL STORAGE CHANGE =        2154883.87         STORAGE CHANGE =        1218046.56
       --------------                             --------------
         LAND SURFACE =        2505892.53           LAND SURFACE =        1046737.06
            SOIL ZONE =        2149569.26              SOIL ZONE =         183914.98
     UNSATURATED ZONE =       -3171853.13       UNSATURATED ZONE =         -10295.68
       SATURATED ZONE =         671275.22         SATURATED ZONE =          -2309.79

 OVERALL BUDGET ERROR =          26886.45           BUDGET ERROR =           4945.87


  PERCENT DISCREPANCY =              0.43    PERCENT DISCREPANCY =              0.40



1
 SUMMARY VOLUMETRIC BUDGET FOR GSFLOW 
 DATE: 03 10 1991              CUMULATIVE TIME STEP:      10
 MODFLOW STRESS PERIOD      7     CURRENT TIME STEP:     161     ITERATIONS:       5

 -----------------------------------------------------------------------------------

   CUMULATIVE VOLUMES               L**3   RATES FOR THIS TIME STEP           L**3/T
   ------------------                      ------------------------

                                     IN                                         IN
                                     --                                         --
        PRECIPITATION =        8746030.42          PRECIPITATION =          32888.55
           STREAMFLOW =                               STREAMFLOW =                  
     GW BOUNDARY FLOW =             38.95       GW BOUNDARY FLOW =              0.89


                                    OUT                                        OUT
                                    ---                                        ---
   EVAPOTRANSPIRATION =        2419306.74     EVAPOTRANSPIRATION =           6928.27
           STREAMFLOW =        1798440.82             STREAMFLOW =          18637.84
     GW BOUNDARY FLOW =           5764.63       GW BOUNDARY FLOW =             35.36

   INFLOWS - OUTFLOWS =        4522557.18     INFLOWS - OUTFLOWS =           7287.98
             --------                                   --------

 TOTAL STORAGE CHANGE =        4468848.29         STORAGE CHANGE =           6670.73
       --------------                             --------------
         LAND SURFACE =        3056677.03           LAND SURFACE =          -5526.40
            SOIL ZONE =        3963675.28              SOIL ZONE =          19048.29
     UNSATURATED ZONE =       -3213907.02       UNSATURATED ZONE =          -5242.15
       SATURATED ZONE =         662403.00         SATURATED ZONE =          -1609.01

 OVERALL BUDGET ERROR =          53708.89           BUDGET ERROR =            617.24


  PERCENT DISCREPANCY =              0.62    PERCENT DISCREPANCY =              1.89



1
 SUMMARY VOLUMETRIC BUDGET FOR GSFLOW 
 DATE: 03 17 1991              CUMULATIVE TIME STEP:      17
 MODFLOW STRESS PERIOD      7     CURRENT TIME STEP:     168     ITERATIONS:       6

 -----------------------------------------------------------------------------------

   CUMULATIVE VOLUMES               L**3   RATES FOR THIS TIME STEP           L**3/T
   ------------------                      ------------------------

                                     IN                                         IN
                                     --                                         --
        PRECIPITATION =        9897129.71          PRECIPITATION =         157865.04
           STREAMFLOW =                               STREAMFLOW =                  
     GW BOUNDARY FLOW =             45.40       GW BOUNDARY FLOW =              0.95


                                    OUT                                        OUT
                                    ---                                        ---
   EVAPOTRANSPIRATION =        2440708.87     EVAPOTRANSPIRATION =           6374.55
           STREAMFLOW =        1920705.22             STREAMFLOW =          16935.72
     GW BOUNDARY FLOW =           6011.42       GW BOUNDARY FLOW =             35.18

   INFLOWS - OUTFLOWS =        5529749.60     INFLOWS - OUTFLOWS =         134520.54
             --------                                   --------

 TOTAL STORAGE CHANGE =        5476148.36         STORAGE CHANGE =         134529.32
       --------------                             --------------
         LAND SURFACE =        4188230.79           LAND SURFACE =         152136.56
            SOIL ZONE =        3889229.07              SOIL ZONE =          -9796.35
     UNSATURATED ZONE =       -3251201.77       UNSATURATED ZONE =          -5560.38
       SATURATED ZONE =         649890.27         SATURATED ZONE =          -2250.51

 OVERALL BUDGET ERROR =          53601.24           BUDGET ERROR =             -8.78


  PERCENT DISCREPANCY =              0.54    PERCENT DISCREPANCY =             -0.01



1
 SUMMARY VOLUMETRIC BUDGET FOR GSFLOW 
 DATE: 03 24 1991              CUMULATIVE TIME STEP:      24
 MODFLOW STRESS PERIOD      7     CURRENT TIME STEP:     175     ITERATIONS:       5

 -----------------------------------------------------------------------------------

   CUMULATIVE VOLUMES               L**3   RATES FOR THIS TIME STEP           L**3/T
   ------------------                      ------------------------

                                     IN                                         IN
                                     --                                         --
        PRECIPITATION =        1.1673D+07          PRECIPITATION =        1230031.83
           STREAMFLOW =                               STREAMFLOW =                  
     GW BOUNDARY FLOW =             52.27       GW BOUNDARY FLOW =              1.00


                                    OUT                                        OUT
                                    ---                                        ---
   EVAPOTRANSPIRATION =        2471574.59     EVAPOTRANSPIRATION =           3626.44
           STREAMFLOW =        2037239.27             STREAMFLOW =          16443.99
     GW BOUNDARY FLOW =           6257.05       GW BOUNDARY FLOW =             35.03

   INFLOWS - OUTFLOWS =        7158092.86     INFLOWS - OUTFLOWS =        1209927.38
             --------                                   --------

 TOTAL STORAGE CHANGE =        7104275.55         STORAGE CHANGE =        1209953.30
       --------------                             --------------
         LAND SURFACE =        5933783.02           LAND SURFACE =        1227482.51
            SOIL ZONE =        3827658.69              SOIL ZONE =          -9333.93
     UNSATURATED ZONE =       -3290435.63       UNSATURATED ZONE =          -5680.22
       SATURATED ZONE =         633269.46         SATURATED ZONE =          -2515.06

 OVERALL BUDGET ERROR =          53817.31           BUDGET ERROR =            -25.91


  PERCENT DISCREPANCY =              0.46    PERCENT DISCREPANCY =             -0.00



1
 SUMMARY VOLUMETRIC BUDGET FOR GSFLOW 
 DATE: 03 31 1991              CUMULATIVE TIME STEP:      31
 MODFLOW STRESS PERIOD      7     CURRENT TIME STEP:     182     ITERATIONS:       5

 -----------------------------------------------------------------------------------

   CUMULATIVE VOLUMES               L**3   RATES FOR THIS TIME STEP           L**3/T
   ------------------                      ------------------------

                                     IN                                         IN
                                     --                                         --
        PRECIPITATION =        1.2495D+07          PRECIPITATION =                  
           STREAMFLOW =                               STREAMFLOW =                  
     GW BOUNDARY FLOW =             59.52       GW BOUNDARY FLOW =              1.06


                                    OUT                                        OUT
                                    ---                                        ---
   EVAPOTRANSPIRATION =        2578487.57     EVAPOTRANSPIRATION =          43836.09
           STREAMFLOW =        2154808.98             STREAMFLOW =          19097.30
     GW BOUNDARY FLOW =           6501.78       GW BOUNDARY FLOW =             34.96

   INFLOWS - OUTFLOWS =        7755586.49     INFLOWS - OUTFLOWS =         -62967.29
             --------                                   --------

 TOTAL STORAGE CHANGE =        7699197.87         STORAGE CHANGE =         -64670.28
       --------------                             --------------
         LAND SURFACE =        6553217.20           LAND SURFACE =        -112248.22
            SOIL ZONE =        3860721.26              SOIL ZONE =          55556.96
     UNSATURATED ZONE =       -3328970.96       UNSATURATED ZONE =          -4974.07
       SATURATED ZONE =         614230.36         SATURATED ZONE =          -3004.96

 OVERALL BUDGET ERROR =          56388.62           BUDGET ERROR =           1703.00


  PERCENT DISCREPANCY =              0.45    PERCENT DISCREPANCY =              2.67



1
 SUMMARY VOLUMETRIC BUDGET FOR GSFLOW 
 DATE: 04 07 1991              CUMULATIVE TIME STEP:       7
 MODFLOW STRESS PERIOD      8     CURRENT TIME STEP:     189     ITERATIONS:       7

 -----------------------------------------------------------------------------------

   CUMULATIVE VOLUMES               L**3   RATES FOR THIS TIME STEP           L**3/T
   ------------------                      ------------------------

                                     IN                                         IN
                                     --                                         --
        PRECIPITATION =        1.3018D+07          PRECIPITATION =                  
           STREAMFLOW =                               STREAMFLOW =                  
     GW BOUNDARY FLOW =             67.15       GW BOUNDARY FLOW =              1.11


                                    OUT                                        OUT
                                    ---                                        ---
   EVAPOTRANSPIRATION =        2862032.09     EVAPOTRANSPIRATION =          13609.13
           STREAMFLOW =        2419601.74             STREAMFLOW =          52881.25
     GW BOUNDARY FLOW =           6748.36       GW BOUNDARY FLOW =             35.45

   INFLOWS - OUTFLOWS =        7729421.69     INFLOWS - OUTFLOWS =         -66524.73
             --------                                   --------

 TOTAL STORAGE CHANGE =        7650747.57         STORAGE CHANGE =         -67083.57
       --------------                             --------------
         LAND SURFACE =        5033740.13           LAND SURFACE =         -59134.98
            SOIL ZONE =        5344255.01              SOIL ZONE =         -12515.42
     UNSATURATED ZONE =       -3324600.88       UNSATURATED ZONE =           6672.89
       SATURATED ZONE =         597353.30         SATURATED ZONE =          -2106.07

 OVERALL BUDGET ERROR =          78674.12           BUDGET ERROR =            558.85


  PERCENT DISCREPANCY =              0.61    PERCENT DISCREPANCY =              0.84



1
 SUMMARY VOLUMETRIC BUDGET FOR GSFLOW 
 DATE: 04 14 1991              CUMULATIVE TIME STEP:      14
 MODFLOW STRESS PERIOD      8     CURRENT TIME STEP:     196     ITERATIONS:       7

 -----------------------------------------------------------------------------------

   CUMULATIVE VOLUMES               L**3   RATES FOR THIS TIME STEP           L**3/T
   ------------------                      ------------------------

                                     IN                                         IN
                                     --                                         --
        PRECIPITATION =        1.3018D+07          PRECIPITATION =                  
           STREAMFLOW =                               STREAMFLOW =                  
     GW BOUNDARY FLOW =             75.10       GW BOUNDARY FLOW =              1.16


                                    OUT                                        OUT
                                    ---                                        ---
   EVAPOTRANSPIRATION =        3032178.91     EVAPOTRANSPIRATION =          38930.37
           STREAMFLOW =        2833937.86             STREAMFLOW =          64293.13
     GW BOUNDARY FLOW =           6996.61       GW BOUNDARY FLOW =             35.48

   INFLOWS - OUTFLOWS =        7144698.46     INFLOWS - OUTFLOWS =        -103257.82
             --------                                   --------

 TOTAL STORAGE CHANGE =        7070900.21         STORAGE CHANGE =        -102643.18
       --------------                             --------------
         LAND SURFACE =        4429762.56           LAND SURFACE =        -170838.53
            SOIL ZONE =        5335009.82              SOIL ZONE =          63740.40
     UNSATURATED ZONE =       -3277540.88       UNSATURATED ZONE =           6478.75
       SATURATED ZONE =         583668.71         SATURATED ZONE =          -2023.80

 OVERALL BUDGET ERROR =          73798.25           BUDGET ERROR =           -614.64


  PERCENT DISCREPANCY =              0.57    PERCENT DISCREPANCY =             -0.60



1
 SUMMARY VOLUMETRIC BUDGET FOR GSFLOW 
 DATE: 04 21 1991              CUMULATIVE TIME STEP:      21
 MODFLOW STRESS PERIOD      8     CURRENT TIME STEP:     203     ITERATIONS:       7

 -----------------------------------------------------------------------------------

   CUMULATIVE VOLUMES               L**3   RATES FOR THIS TIME STEP           L**3/T
   ------------------                      ------------------------

                                     IN                                         IN
                                     --                                         --
        PRECIPITATION =        1.3034D+07          PRECIPITATION =                  
           STREAMFLOW =                               STREAMFLOW =                  
     GW BOUNDARY FLOW =             83.36       GW BOUNDARY FLOW =              1.20


                                    OUT                                        OUT
                                    ---                                        ---
   EVAPOTRANSPIRATION =        3264001.24     EVAPOTRANSPIRATION =          43519.38
           STREAMFLOW =        3346427.82             STREAMFLOW =          87024.11
     GW BOUNDARY FLOW =           7245.37       GW BOUNDARY FLOW =             35.67

   INFLOWS - OUTFLOWS =        6416471.03     INFLOWS - OUTFLOWS =        -130577.96
             --------                                   --------

 TOTAL STORAGE CHANGE =        6367298.37         STORAGE CHANGE =        -125254.76
       --------------                             --------------
         LAND SURFACE =        3339485.92           LAND SURFACE =        -212222.76
            SOIL ZONE =        5682829.87              SOIL ZONE =          79532.96
     UNSATURATED ZONE =       -3226950.84       UNSATURATED ZONE =           8951.35
       SATURATED ZONE =         571933.40         SATURATED ZONE =          -1516.31

 OVERALL BUDGET ERROR =          49172.67           BUDGET ERROR =          -5323.20

  ***WARNING, FLUX RATES OFF > 3%

  PERCENT DISCREPANCY =              0.38    PERCENT DISCREPANCY =             -4.16



1
 SUMMARY VOLUMETRIC BUDGET FOR GSFLOW 
 DATE: 04 28 1991              CUMULATIVE TIME STEP:      28
 MODFLOW STRESS PERIOD      8     CURRENT TIME STEP:     210     ITERATIONS:       6

 -----------------------------------------------------------------------------------

   CUMULATIVE VOLUMES               L**3   RATES FOR THIS TIME STEP           L**3/T
   ------------------                      ------------------------

                                     IN                                         IN
                                     --                                         --
        PRECIPITATION =        1.3303D+07          PRECIPITATION =                  
           STREAMFLOW =                               STREAMFLOW =                  
     GW BOUNDARY FLOW =             91.90       GW BOUNDARY FLOW =              1.24


                                    OUT                                        OUT
                                    ---                                        ---
   EVAPOTRANSPIRATION =        3511307.92     EVAPOTRANSPIRATION =          55471.29
           STREAMFLOW =        3974879.44             STREAMFLOW =          86635.03
     GW BOUNDARY FLOW =           7494.86       GW BOUNDARY FLOW =             35.55

   INFLOWS - OUTFLOWS =        5809840.19     INFLOWS - OUTFLOWS =        -142140.64
             --------                                   --------

 TOTAL STORAGE CHANGE =        5814828.49         STORAGE CHANGE =        -133814.96
       --------------                             --------------
         LAND SURFACE =        2758651.59           LAND SURFACE =        -113752.45
            SOIL ZONE =        5655538.58              SOIL ZONE =         -27216.56
     UNSATURATED ZONE =       -3163360.11       UNSATURATED ZONE =           8280.92
       SATURATED ZONE =         563998.44         SATURATED ZONE =          -1126.87

 OVERALL BUDGET ERROR =          -4988.31           BUDGET ERROR =          -8325.68

  ***WARNING, FLUX RATES OFF > 3%

  PERCENT DISCREPANCY =             -0.04    PERCENT DISCREPANCY =             -6.03



1
 SUMMARY VOLUMETRIC BUDGET FOR GSFLOW 
 DATE: 05 05 1991              CUMULATIVE TIME STEP:       5
 MODFLOW STRESS PERIOD      9     CURRENT TIME STEP:     217     ITERATIONS:      81

 -----------------------------------------------------------------------------------

   CUMULATIVE VOLUMES               L**3   RATES FOR THIS TIME STEP           L**3/T
   ------------------                      ------------------------

                                     IN                                         IN
                                     --                                         --
        PRECIPITATION =        1.3510D+07          PRECIPITATION =                  
           STREAMFLOW =                               STREAMFLOW =                  
     GW BOUNDARY FLOW =            100.70       GW BOUNDARY FLOW =              1.27


                                    OUT                                        OUT
                                    ---                                        ---
   EVAPOTRANSPIRATION =        3861254.31     EVAPOTRANSPIRATION =          85089.73
           STREAMFLOW =        4543849.13             STREAMFLOW =          83411.34
     GW BOUNDARY FLOW =           7742.76       GW BOUNDARY FLOW =             35.37

   INFLOWS - OUTFLOWS =        5096962.63     INFLOWS - OUTFLOWS =        -168535.18
             --------                                   --------

 TOTAL STORAGE CHANGE =        5155499.85         STORAGE CHANGE =        -160764.40
       --------------                             --------------
         LAND SURFACE =        2105621.15           LAND SURFACE =        -166214.31
            SOIL ZONE =        5605429.15              SOIL ZONE =          -1045.68
     UNSATURATED ZONE =       -3110380.45       UNSATURATED ZONE =           6626.07
       SATURATED ZONE =         554829.99         SATURATED ZONE =           -130.47

 OVERALL BUDGET ERROR =         -58537.21           BUDGET ERROR =          -7770.78

  ***WARNING, FLUX RATES OFF > 3%

  PERCENT DISCREPANCY =             -0.43    PERCENT DISCREPANCY =             -4.72



1
 SUMMARY VOLUMETRIC BUDGET FOR GSFLOW 
 DATE: 05 12 1991              CUMULATIVE TIME STEP:      12
 MODFLOW STRESS PERIOD      9     CURRENT TIME STEP:     224     ITERATIONS:       6

 -----------------------------------------------------------------------------------

   CUMULATIVE VOLUMES               L**3   RATES FOR THIS TIME STEP           L**3/T
   ------------------                      ------------------------

                                     IN                                         IN
                                     --                                         --
        PRECIPITATION =        1.4029D+07          PRECIPITATION =                  
           STREAMFLOW =                               STREAMFLOW =                  
     GW BOUNDARY FLOW =            109.76       GW BOUNDARY FLOW =              1.31


                                    OUT                                        OUT
                                    ---                                        ---
   EVAPOTRANSPIRATION =        4231432.15     EVAPOTRANSPIRATION =          62812.25
           STREAMFLOW =        5101505.05             STREAMFLOW =          82617.82
     GW BOUNDARY FLOW =           7989.32       GW BOUNDARY FLOW =             35.18

   INFLOWS - OUTFLOWS =        4688405.40     INFLOWS - OUTFLOWS =        -145463.94
             --------                                   --------

 TOTAL STORAGE CHANGE =        4796245.38         STORAGE CHANGE =        -138230.57
       --------------                             --------------
         LAND SURFACE =        1671151.50           LAND SURFACE =        -195073.29
            SOIL ZONE =        5636668.82              SOIL ZONE =          50875.20
     UNSATURATED ZONE =       -3056150.34       UNSATURATED ZONE =           7470.70
       SATURATED ZONE =         544575.41         SATURATED ZONE =          -1503.18

 OVERALL BUDGET ERROR =        -107839.99           BUDGET ERROR =          -7233.38

  ***WARNING, FLUX RATES OFF > 3%

  PERCENT DISCREPANCY =             -0.77    PERCENT DISCREPANCY =             -5.10



1
 SUMMARY VOLUMETRIC BUDGET FOR GSFLOW 
 DATE: 05 19 1991              CUMULATIVE TIME STEP:      19
 MODFLOW STRESS PERIOD      9     CURRENT TIME STEP:     231     ITERATIONS:       6

 -----------------------------------------------------------------------------------

   CUMULATIVE VOLUMES               L**3   RATES FOR THIS TIME STEP           L**3/T
   ------------------                      ------------------------

                                     IN                                         IN
                                     --                                         --
        PRECIPITATION =        1.4365D+07          PRECIPITATION =                  
           STREAMFLOW =                               STREAMFLOW =                  
     GW BOUNDARY FLOW =            119.09       GW BOUNDARY FLOW =              1.35


                                    OUT                                        OUT
                                    ---                                        ---
   EVAPOTRANSPIRATION =        4631810.91     EVAPOTRANSPIRATION =          18047.46
           STREAMFLOW =        5653442.85             STREAMFLOW =          70812.66
     GW BOUNDARY FLOW =           8234.59       GW BOUNDARY FLOW =             34.86

   INFLOWS - OUTFLOWS =        4072009.05     INFLOWS - OUTFLOWS =         -88893.63
             --------                                   --------

 TOTAL STORAGE CHANGE =        4229301.61         STORAGE CHANGE =         -81762.84
       --------------                             --------------
         LAND SURFACE =        1131549.53           LAND SURFACE =         -21030.92
            SOIL ZONE =        5567573.46              SOIL ZONE =         -65474.36
     UNSATURATED ZONE =       -3002935.51       UNSATURATED ZONE =           6509.79
       SATURATED ZONE =         533114.13         SATURATED ZONE =          -1767.36

 OVERALL BUDGET ERROR =        -157292.56           BUDGET ERROR =          -7130.79

  ***WARNING, FLUX RATES OFF > 3%

  PERCENT DISCREPANCY =             -1.09    PERCENT DISCREPANCY =             -8.36



1
 SUMMARY VOLUMETRIC BUDGET FOR GSFLOW 
 DATE: 05 26 1991              CUMULATIVE TIME STEP:      26
 MODFLOW STRESS PERIOD      9     CURRENT TIME STEP:     238     ITERATIONS:       6

 -----------------------------------------------------------------------------------

   CUMULATIVE VOLUMES               L**3   RATES FOR THIS TIME STEP           L**3/T
   ------------------                      ------------------------

                                     IN                                         IN
                                     --                                         --
        PRECIPITATION =        1.4426D+07          PRECIPITATION =                  
           STREAMFLOW =                               STREAMFLOW =                  
     GW BOUNDARY FLOW =            128.69       GW BOUNDARY FLOW =              1.39


                                    OUT                                        OUT
                                    ---                                        ---
   EVAPOTRANSPIRATION =        5279405.54     EVAPOTRANSPIRATION =          71056.99
           STREAMFLOW =        6103559.35             STREAMFLOW =          51765.24
     GW BOUNDARY FLOW =           8477.31       GW BOUNDARY FLOW =             34.42

   INFLOWS - OUTFLOWS =        3035184.09     INFLOWS - OUTFLOWS =        -122855.27
             --------                                   --------

 TOTAL STORAGE CHANGE =        3233954.03         STORAGE CHANGE =        -118388.40
       --------------                             --------------
         LAND SURFACE =         596309.91           LAND SURFACE =         -39567.86
            SOIL ZONE =        5083049.71              SOIL ZONE =         -79966.86
     UNSATURATED ZONE =       -2965402.71       UNSATURATED ZONE =           3193.00
       SATURATED ZONE =         519997.12         SATURATED ZONE =          -2046.69

 OVERALL BUDGET ERROR =        -198769.94           BUDGET ERROR =          -4466.87

  ***WARNING, FLUX RATES OFF > 3%

  PERCENT DISCREPANCY =             -1.37    PERCENT DISCREPANCY =             -3.70



1
 SUMMARY VOLUMETRIC BUDGET FOR GSFLOW 
 DATE: 06 02 1991              CUMULATIVE TIME STEP:       2
 MODFLOW STRESS PERIOD     10     CURRENT TIME STEP:     245     ITERATIONS:       7

 -----------------------------------------------------------------------------------

   CUMULATIVE VOLUMES               L**3   RATES FOR THIS TIME STEP           L**3/T
   ------------------                      ------------------------

                                     IN                                         IN
                                     --                                         --
        PRECIPITATION =        1.4671D+07          PRECIPITATION =                  
           STREAMFLOW =                               STREAMFLOW =                  
     GW BOUNDARY FLOW =            138.57       GW BOUNDARY FLOW =              1.43


                                    OUT                                        OUT
                                    ---                                        ---
   EVAPOTRANSPIRATION =        5824714.06     EVAPOTRANSPIRATION =         119491.39
           STREAMFLOW =        6422498.86             STREAMFLOW =          42043.59
     GW BOUNDARY FLOW =           8716.95       GW BOUNDARY FLOW =             34.11

   INFLOWS - OUTFLOWS =        2415183.50     INFLOWS - OUTFLOWS =        -161567.66
             --------                                   --------

 TOTAL STORAGE CHANGE =        2631089.66         STORAGE CHANGE =        -158263.30
       --------------                             --------------
         LAND SURFACE =         342585.53           LAND SURFACE =         -44718.56
            SOIL ZONE =        4736527.26              SOIL ZONE =        -112562.74
     UNSATURATED ZONE =       -2952425.61       UNSATURATED ZONE =           1358.35
       SATURATED ZONE =         504402.49         SATURATED ZONE =          -2340.35

 OVERALL BUDGET ERROR =        -215906.16           BUDGET ERROR =          -3304.36


  PERCENT DISCREPANCY =             -1.46    PERCENT DISCREPANCY =             -2.07



1
 SUMMARY VOLUMETRIC BUDGET FOR GSFLOW 
 DATE: 06 09 1991              CUMULATIVE TIME STEP:       9
 MODFLOW STRESS PERIOD     10     CURRENT TIME STEP:     252     ITERATIONS:       7

 -----------------------------------------------------------------------------------

   CUMULATIVE VOLUMES               L**3   RATES FOR THIS TIME STEP           L**3/T
   ------------------                      ------------------------

                                     IN                                         IN
                                     --                                         --
        PRECIPITATION =        1.4671D+07          PRECIPITATION =                  
           STREAMFLOW =                               STREAMFLOW =                  
     GW BOUNDARY FLOW =            148.74       GW BOUNDARY FLOW =              1.47


                                    OUT                                        OUT
                                    ---                                        ---
   EVAPOTRANSPIRATION =        6541948.44     EVAPOTRANSPIRATION =         166540.44
           STREAMFLOW =        6660096.12             STREAMFLOW =          28903.82
     GW BOUNDARY FLOW =           8954.11       GW BOUNDARY FLOW =             33.72

   INFLOWS - OUTFLOWS =        1460124.87     INFLOWS - OUTFLOWS =        -195476.51
             --------                                   --------

 TOTAL STORAGE CHANGE =        1694580.12         STORAGE CHANGE =        -192951.04
       --------------                             --------------
         LAND SURFACE =         143816.54           LAND SURFACE =         -32280.14
            SOIL ZONE =        4022927.69              SOIL ZONE =        -155571.29
     UNSATURATED ZONE =       -2956883.86       UNSATURATED ZONE =          -2022.55
       SATURATED ZONE =         484719.74         SATURATED ZONE =          -3077.06

 OVERALL BUDGET ERROR =        -234455.25           BUDGET ERROR =          -2525.47


  PERCENT DISCREPANCY =             -1.59    PERCENT DISCREPANCY =             -1.30



1
 SUMMARY VOLUMETRIC BUDGET FOR GSFLOW 
 DATE: 06 16 1991              CUMULATIVE TIME STEP:      16
 MODFLOW STRESS PERIOD     10     CURRENT TIME STEP:     259     ITERATIONS:      10

 -----------------------------------------------------------------------------------

   CUMULATIVE VOLUMES               L**3   RATES FOR THIS TIME STEP           L**3/T
   ------------------                      ------------------------

                                     IN                                         IN
                                     --                                         --
        PRECIPITATION =        1.4671D+07          PRECIPITATION =                  
           STREAMFLOW =                               STREAMFLOW =                  
     GW BOUNDARY FLOW =            159.20       GW BOUNDARY FLOW =              1.51


                                    OUT                                        OUT
                                    ---                                        ---
   EVAPOTRANSPIRATION =        7501863.30     EVAPOTRANSPIRATION =         108641.41
           STREAMFLOW =        6803172.92             STREAMFLOW =          17807.13
     GW BOUNDARY FLOW =           9187.18       GW BOUNDARY FLOW =             33.17

   INFLOWS - OUTFLOWS =         356910.60     INFLOWS - OUTFLOWS =        -126480.21
             --------                                   --------

 TOTAL STORAGE CHANGE =         597530.19         STORAGE CHANGE =        -125084.91
       --------------                             --------------
         LAND SURFACE =          39366.58           LAND SURFACE =          -6891.90
            SOIL ZONE =        3100534.23              SOIL ZONE =        -104040.66
     UNSATURATED ZONE =       -3000320.99       UNSATURATED ZONE =          -9626.38
       SATURATED ZONE =         457950.36         SATURATED ZONE =          -4525.97

 OVERALL BUDGET ERROR =        -240619.58           BUDGET ERROR =          -1395.29


  PERCENT DISCREPANCY =             -1.63    PERCENT DISCREPANCY =             -1.11



1
 SUMMARY VOLUMETRIC BUDGET FOR GSFLOW 
 DATE: 06 23 1991              CUMULATIVE TIME STEP:      23
 MODFLOW STRESS PERIOD     10     CURRENT TIME STEP:     266     ITERATIONS:       9

 -----------------------------------------------------------------------------------

   CUMULATIVE VOLUMES               L**3   RATES FOR THIS TIME STEP           L**3/T
   ------------------                      ------------------------

                                     IN                                         IN
                                     --                                         --
        PRECIPITATION =        1.4671D+07          PRECIPITATION =                  
           STREAMFLOW =                               STREAMFLOW =                  
     GW BOUNDARY FLOW =            169.97       GW BOUNDARY FLOW =              1.56


                                    OUT                                        OUT
                                    ---                                        ---
   EVAPOTRANSPIRATION =        7983599.33     EVAPOTRANSPIRATION =          34779.85
           STREAMFLOW =        6913874.27             STREAMFLOW =          15297.68
     GW BOUNDARY FLOW =           9418.55       GW BOUNDARY FLOW =             33.01

   INFLOWS - OUTFLOWS =        -235747.37     INFLOWS - OUTFLOWS =         -50108.99
             --------                                   --------

 TOTAL STORAGE CHANGE =          11568.41         STORAGE CHANGE =         -49473.73
       --------------                             --------------
         LAND SURFACE =          15711.98           LAND SURFACE =          -1518.98
            SOIL ZONE =        2646871.17              SOIL ZONE =         -33920.46
     UNSATURATED ZONE =       -3073103.95       UNSATURATED ZONE =          -8786.34
       SATURATED ZONE =         422089.21         SATURATED ZONE =          -5247.95

 OVERALL BUDGET ERROR =        -247315.78           BUDGET ERROR =           -635.26


  PERCENT DISCREPANCY =             -1.67    PERCENT DISCREPANCY =             -1.28



1
 SUMMARY VOLUMETRIC BUDGET FOR GSFLOW 
 DATE: 06 30 1991              CUMULATIVE TIME STEP:      30
 MODFLOW STRESS PERIOD     10     CURRENT TIME STEP:     273     ITERATIONS:       7

 -----------------------------------------------------------------------------------

[...]
                                    ---                                        ---
   EVAPOTRANSPIRATION =        7.3571D+07     EVAPOTRANSPIRATION =          85250.24
           STREAMFLOW =        7.5314D+07             STREAMFLOW =          12495.20
     GW BOUNDARY FLOW =          51004.12       GW BOUNDARY FLOW =             24.34

   INFLOWS - OUTFLOWS =       -1.5421D+07     INFLOWS - OUTFLOWS =         -97766.40
             --------                                   --------

 TOTAL STORAGE CHANGE =       -1.0496D+07         STORAGE CHANGE =         -97492.60
       --------------                             --------------
         LAND SURFACE =         518159.97           LAND SURFACE =         -24360.57
            SOIL ZONE =        2168879.57              SOIL ZONE =         -59175.90
     UNSATURATED ZONE =          43677.51       UNSATURATED ZONE =          -9064.46
       SATURATED ZONE =       -1.3226D+07         SATURATED ZONE =          -4891.67

 OVERALL BUDGET ERROR =       -4925783.59           BUDGET ERROR =           -273.80


  PERCENT DISCREPANCY =             -3.36    PERCENT DISCREPANCY =             -0.28



1
 SUMMARY VOLUMETRIC BUDGET FOR GSFLOW 
 DATE: 09 03 1995              CUMULATIVE TIME STEP:       3
 MODFLOW STRESS PERIOD     61     CURRENT TIME STEP:    1799     ITERATIONS:       6

 -----------------------------------------------------------------------------------

   CUMULATIVE VOLUMES               L**3   RATES FOR THIS TIME STEP           L**3/T
   ------------------                      ------------------------

                                     IN                                         IN
                                     --                                         --
        PRECIPITATION =        1.3351D+08          PRECIPITATION =                  
           STREAMFLOW =                               STREAMFLOW =                  
     GW BOUNDARY FLOW =           5623.79       GW BOUNDARY FLOW =              3.48


                                    OUT                                        OUT
                                    ---                                        ---
   EVAPOTRANSPIRATION =        7.4146D+07     EVAPOTRANSPIRATION =          77184.94
           STREAMFLOW =        7.5379D+07             STREAMFLOW =          10954.14
     GW BOUNDARY FLOW =          51173.61       GW BOUNDARY FLOW =             24.23

   INFLOWS - OUTFLOWS =       -1.6063D+07     INFLOWS - OUTFLOWS =         -88159.83
             --------                                   --------

 TOTAL STORAGE CHANGE =       -1.1148D+07         STORAGE CHANGE =         -87632.93
       --------------                             --------------
         LAND SURFACE =         367299.20           LAND SURFACE =         -19252.55
            SOIL ZONE =        1775139.05              SOIL ZONE =         -52230.57
     UNSATURATED ZONE =         -22377.28       UNSATURATED ZONE =          -9532.02
       SATURATED ZONE =       -1.3268D+07         SATURATED ZONE =          -6617.79

 OVERALL BUDGET ERROR =       -4914881.14           BUDGET ERROR =           -526.91


  PERCENT DISCREPANCY =             -3.34    PERCENT DISCREPANCY =             -0.60



1
 SUMMARY VOLUMETRIC BUDGET FOR GSFLOW 
 DATE: 09 10 1995              CUMULATIVE TIME STEP:      10
 MODFLOW STRESS PERIOD     61     CURRENT TIME STEP:    1806     ITERATIONS:       7

 -----------------------------------------------------------------------------------

   CUMULATIVE VOLUMES               L**3   RATES FOR THIS TIME STEP           L**3/T
   ------------------                      ------------------------

                                     IN                                         IN
                                     --                                         --
        PRECIPITATION =        1.3351D+08          PRECIPITATION =                  
           STREAMFLOW =                               STREAMFLOW =                  
     GW BOUNDARY FLOW =           5648.51       GW BOUNDARY FLOW =              3.57


                                    OUT                                        OUT
                                    ---                                        ---
   EVAPOTRANSPIRATION =        7.4581D+07     EVAPOTRANSPIRATION =          58134.00
           STREAMFLOW =        7.5452D+07             STREAMFLOW =           9798.65
     GW BOUNDARY FLOW =          51343.16       GW BOUNDARY FLOW =             24.19

   INFLOWS - OUTFLOWS =       -1.6570D+07     INFLOWS - OUTFLOWS =         -67953.28
             --------                                   --------

 TOTAL STORAGE CHANGE =       -1.1652D+07         STORAGE CHANGE =         -67490.37
       --------------                             --------------
         LAND SURFACE =         267725.60           LAND SURFACE =         -12446.55
            SOIL ZONE =        1477690.85              SOIL ZONE =         -39580.81
     UNSATURATED ZONE =         -85806.70       UNSATURATED ZONE =          -8920.65
       SATURATED ZONE =       -1.3312D+07         SATURATED ZONE =          -6542.37

 OVERALL BUDGET ERROR =       -4918205.65           BUDGET ERROR =           -462.91


  PERCENT DISCREPANCY =             -3.33    PERCENT DISCREPANCY =             -0.68



1
 SUMMARY VOLUMETRIC BUDGET FOR GSFLOW 
 DATE: 09 17 1995              CUMULATIVE TIME STEP:      17
 MODFLOW STRESS PERIOD     61     CURRENT TIME STEP:    1813     ITERATIONS:       7

 -----------------------------------------------------------------------------------

   CUMULATIVE VOLUMES               L**3   RATES FOR THIS TIME STEP           L**3/T
   ------------------                      ------------------------

                                     IN                                         IN
                                     --                                         --
        PRECIPITATION =        1.3351D+08          PRECIPITATION =                  
           STREAMFLOW =                               STREAMFLOW =                  
     GW BOUNDARY FLOW =           5673.87       GW BOUNDARY FLOW =              3.66


                                    OUT                                        OUT
                                    ---                                        ---
   EVAPOTRANSPIRATION =        7.5055D+07     EVAPOTRANSPIRATION =          54579.98
           STREAMFLOW =        7.5510D+07             STREAMFLOW =           8156.27
     GW BOUNDARY FLOW =          51511.73       GW BOUNDARY FLOW =             24.09

   INFLOWS - OUTFLOWS =       -1.7102D+07     INFLOWS - OUTFLOWS =         -62756.68
             --------                                   --------

 TOTAL STORAGE CHANGE =       -1.2181D+07         STORAGE CHANGE =         -62299.85
       --------------                             --------------
         LAND SURFACE =         177960.28           LAND SURFACE =          -9479.42
            SOIL ZONE =        1165179.50              SOIL ZONE =         -35783.90
     UNSATURATED ZONE =        -152297.45       UNSATURATED ZONE =          -9279.56
       SATURATED ZONE =       -1.3371D+07         SATURATED ZONE =          -7756.97

 OVERALL BUDGET ERROR =       -4921859.22           BUDGET ERROR =           -456.83


  PERCENT DISCREPANCY =             -3.32    PERCENT DISCREPANCY =             -0.73



1
 SUMMARY VOLUMETRIC BUDGET FOR GSFLOW 
 DATE: 09 24 1995              CUMULATIVE TIME STEP:      24
 MODFLOW STRESS PERIOD     61     CURRENT TIME STEP:    1820     ITERATIONS:       7

 -----------------------------------------------------------------------------------

   CUMULATIVE VOLUMES               L**3   RATES FOR THIS TIME STEP           L**3/T
   ------------------                      ------------------------

                                     IN                                         IN
                                     --                                         --
        PRECIPITATION =        1.3351D+08          PRECIPITATION =                  
           STREAMFLOW =                               STREAMFLOW =                  
     GW BOUNDARY FLOW =           5699.84       GW BOUNDARY FLOW =              3.75


                                    OUT                                        OUT
                                    ---                                        ---
   EVAPOTRANSPIRATION =        7.5394D+07     EVAPOTRANSPIRATION =          34933.00
           STREAMFLOW =        7.5565D+07             STREAMFLOW =           8331.91
     GW BOUNDARY FLOW =          51680.26       GW BOUNDARY FLOW =             24.12

   INFLOWS - OUTFLOWS =       -1.7497D+07     INFLOWS - OUTFLOWS =         -43285.27
             --------                                   --------

 TOTAL STORAGE CHANGE =       -1.2572D+07         STORAGE CHANGE =         -42898.72
       --------------                             --------------
         LAND SURFACE =         123669.61           LAND SURFACE =          -5454.35
            SOIL ZONE =         944217.26              SOIL ZONE =         -22518.16
     UNSATURATED ZONE =        -212932.87       UNSATURATED ZONE =          -8228.10
       SATURATED ZONE =       -1.3427D+07         SATURATED ZONE =          -6698.12

 OVERALL BUDGET ERROR =       -4924987.69           BUDGET ERROR =           -386.55


  PERCENT DISCREPANCY =             -3.32    PERCENT DISCREPANCY =             -0.90



1
 SUMMARY VOLUMETRIC BUDGET FOR GSFLOW 
 DATE: 10 01 1995              CUMULATIVE TIME STEP:       1
 MODFLOW STRESS PERIOD     62     CURRENT TIME STEP:    1827     ITERATIONS:       6

 -----------------------------------------------------------------------------------

   CUMULATIVE VOLUMES               L**3   RATES FOR THIS TIME STEP           L**3/T
   ------------------                      ------------------------

                                     IN                                         IN
                                     --                                         --
        PRECIPITATION =        1.3351D+08          PRECIPITATION =                  
           STREAMFLOW =                               STREAMFLOW =                  
     GW BOUNDARY FLOW =           5726.39       GW BOUNDARY FLOW =              3.83


                                    OUT                                        OUT
                                    ---                                        ---
   EVAPOTRANSPIRATION =        7.5532D+07     EVAPOTRANSPIRATION =          20789.33
           STREAMFLOW =        7.5629D+07             STREAMFLOW =           8991.98
     GW BOUNDARY FLOW =          51849.58       GW BOUNDARY FLOW =             24.19

   INFLOWS - OUTFLOWS =       -1.7699D+07     INFLOWS - OUTFLOWS =         -29801.67
             --------                                   --------

 TOTAL STORAGE CHANGE =       -1.2772D+07         STORAGE CHANGE =         -29488.14
       --------------                             --------------
         LAND SURFACE =         100770.57           LAND SURFACE =          -2835.89
            SOIL ZONE =         857590.19              SOIL ZONE =         -13376.39
     UNSATURATED ZONE =        -266043.96       UNSATURATED ZONE =          -7493.88
       SATURATED ZONE =       -1.3464D+07         SATURATED ZONE =          -5781.98

 OVERALL BUDGET ERROR =       -4927164.52           BUDGET ERROR =           -313.53


  PERCENT DISCREPANCY =             -3.31    PERCENT DISCREPANCY =             -1.06



1
 SUMMARY VOLUMETRIC BUDGET FOR GSFLOW 
 DATE: 10 08 1995              CUMULATIVE TIME STEP:       8
 MODFLOW STRESS PERIOD     62     CURRENT TIME STEP:    1834     ITERATIONS:       6

 -----------------------------------------------------------------------------------

   CUMULATIVE VOLUMES               L**3   RATES FOR THIS TIME STEP           L**3/T
   ------------------                      ------------------------

                                     IN                                         IN
                                     --                                         --
        PRECIPITATION =        1.3351D+08          PRECIPITATION =                  
           STREAMFLOW =                               STREAMFLOW =                  
     GW BOUNDARY FLOW =           5753.49       GW BOUNDARY FLOW =              3.90


                                    OUT                                        OUT
                                    ---                                        ---
   EVAPOTRANSPIRATION =        7.5693D+07     EVAPOTRANSPIRATION =          20167.87
           STREAMFLOW =        7.5690D+07             STREAMFLOW =           8672.69
     GW BOUNDARY FLOW =          52018.80       GW BOUNDARY FLOW =             24.19

   INFLOWS - OUTFLOWS =       -1.7921D+07     INFLOWS - OUTFLOWS =         -28860.84
             --------                                   --------

 TOTAL STORAGE CHANGE =       -1.2991D+07         STORAGE CHANGE =         -28551.26
       --------------                             --------------
         LAND SURFACE =          80522.27           LAND SURFACE =          -2457.43
            SOIL ZONE =         755285.63              SOIL ZONE =         -12516.73
     UNSATURATED ZONE =        -318154.97       UNSATURATED ZONE =          -7270.48
       SATURATED ZONE =       -1.3509D+07         SATURATED ZONE =          -6306.62

 OVERALL BUDGET ERROR =       -4929448.96           BUDGET ERROR =           -309.58


  PERCENT DISCREPANCY =             -3.31    PERCENT DISCREPANCY =             -1.08



1
 SUMMARY VOLUMETRIC BUDGET FOR GSFLOW 
 DATE: 10 15 1995              CUMULATIVE TIME STEP:      15
 MODFLOW STRESS PERIOD     62     CURRENT TIME STEP:    1841     ITERATIONS:       6

 -----------------------------------------------------------------------------------

   CUMULATIVE VOLUMES               L**3   RATES FOR THIS TIME STEP           L**3/T
   ------------------                      ------------------------

                                     IN                                         IN
                                     --                                         --
        PRECIPITATION =        1.3351D+08          PRECIPITATION =                  
           STREAMFLOW =                               STREAMFLOW =                  
     GW BOUNDARY FLOW =           5781.08       GW BOUNDARY FLOW =              3.97


                                    OUT                                        OUT
                                    ---                                        ---
   EVAPOTRANSPIRATION =        7.5852D+07     EVAPOTRANSPIRATION =          25309.37
           STREAMFLOW =        7.5748D+07             STREAMFLOW =           8041.26
     GW BOUNDARY FLOW =          52187.96       GW BOUNDARY FLOW =             24.15

   INFLOWS - OUTFLOWS =       -1.8137D+07     INFLOWS - OUTFLOWS =         -33370.81
             --------                                   --------

 TOTAL STORAGE CHANGE =       -1.3206D+07         STORAGE CHANGE =         -33038.70
       --------------                             --------------
         LAND SURFACE =          62088.08           LAND SURFACE =          -2638.24
            SOIL ZONE =         659517.27              SOIL ZONE =         -15180.07
     UNSATURATED ZONE =        -370317.83       UNSATURATED ZONE =          -7616.01
       SATURATED ZONE =       -1.3557D+07         SATURATED ZONE =          -7604.38

 OVERALL BUDGET ERROR =       -4931727.48           BUDGET ERROR =           -332.11


  PERCENT DISCREPANCY =             -3.31    PERCENT DISCREPANCY =             -1.00



1
 SUMMARY VOLUMETRIC BUDGET FOR GSFLOW 
 DATE: 10 22 1995              CUMULATIVE TIME STEP:      22
 MODFLOW STRESS PERIOD     62     CURRENT TIME STEP:    1848     ITERATIONS:       7

 -----------------------------------------------------------------------------------

   CUMULATIVE VOLUMES               L**3   RATES FOR THIS TIME STEP           L**3/T
   ------------------                      ------------------------

                                     IN                                         IN
                                     --                                         --
        PRECIPITATION =        1.3351D+08          PRECIPITATION =                  
           STREAMFLOW =                               STREAMFLOW =                  
     GW BOUNDARY FLOW =           5809.13       GW BOUNDARY FLOW =              4.04


                                    OUT                                        OUT
                                    ---                                        ---
   EVAPOTRANSPIRATION =        7.5994D+07     EVAPOTRANSPIRATION =           5902.96
           STREAMFLOW =        7.5805D+07             STREAMFLOW =           9205.77
     GW BOUNDARY FLOW =          52357.10       GW BOUNDARY FLOW =             24.25

   INFLOWS - OUTFLOWS =       -1.8337D+07     INFLOWS - OUTFLOWS =         -15128.94
             --------                                   --------

 TOTAL STORAGE CHANGE =       -1.3403D+07         STORAGE CHANGE =         -14923.81
       --------------                             --------------
         LAND SURFACE =          48265.30           LAND SURFACE =           -654.57
            SOIL ZONE =         575852.24              SOIL ZONE =          -3495.48
     UNSATURATED ZONE =        -420383.41       UNSATURATED ZONE =          -6272.47
       SATURATED ZONE =       -1.3607D+07         SATURATED ZONE =          -4501.29

 OVERALL BUDGET ERROR =       -4933846.15           BUDGET ERROR =           -205.13


  PERCENT DISCREPANCY =             -3.30    PERCENT DISCREPANCY =             -1.36



1
 SUMMARY VOLUMETRIC BUDGET FOR GSFLOW 
 DATE: 10 29 1995              CUMULATIVE TIME STEP:      29
 MODFLOW STRESS PERIOD     62     CURRENT TIME STEP:    1855     ITERATIONS:       5

 -----------------------------------------------------------------------------------

   CUMULATIVE VOLUMES               L**3   RATES FOR THIS TIME STEP           L**3/T
   ------------------                      ------------------------

                                     IN                                         IN
                                     --                                         --
        PRECIPITATION =        1.3351D+08          PRECIPITATION =                  
           STREAMFLOW =                               STREAMFLOW =                  
     GW BOUNDARY FLOW =           5837.71       GW BOUNDARY FLOW =              4.12


                                    OUT                                        OUT
                                    ---                                        ---
   EVAPOTRANSPIRATION =        7.6079D+07     EVAPOTRANSPIRATION =          14947.81
           STREAMFLOW =        7.5866D+07             STREAMFLOW =           8321.50
     GW BOUNDARY FLOW =          52526.65       GW BOUNDARY FLOW =             24.20

   INFLOWS - OUTFLOWS =       -1.8483D+07     INFLOWS - OUTFLOWS =         -23289.39
             --------                                   --------

 TOTAL STORAGE CHANGE =       -1.3548D+07         STORAGE CHANGE =         -23024.12
       --------------                             --------------
         LAND SURFACE =          42120.00           LAND SURFACE =          -1365.71
            SOIL ZONE =         525994.07              SOIL ZONE =          -8215.35
     UNSATURATED ZONE =        -465968.14       UNSATURATED ZONE =          -6532.03
       SATURATED ZONE =       -1.3650D+07         SATURATED ZONE =          -6911.03

 OVERALL BUDGET ERROR =       -4935615.30           BUDGET ERROR =           -265.27


  PERCENT DISCREPANCY =             -3.30    PERCENT DISCREPANCY =             -1.15



