1
 SUMMARY VOLUMETRIC BUDGET FOR GSFLOW 
 DATE: 10 07 1990              CUMULATIVE TIME STEP:       7
 MODFLOW STRESS PERIOD      2     CURRENT TIME STEP:       7     ITERATIONS:       7

 -----------------------------------------------------------------------------------

   CUMULATIVE VOLUMES               L**3   RATES FOR THIS TIME STEP           L**3/T
   ------------------                      ------------------------

                                     IN                                         IN
                                     --                                         --
        PRECIPITATION =                            PRECIPITATION =                  
           STREAMFLOW =                               STREAMFLOW =                  
     GW BOUNDARY FLOW =                         GW BOUNDARY FLOW =                  


                                    OUT                                        OUT
                                    ---                                        ---
   EVAPOTRANSPIRATION =          78378.95     EVAPOTRANSPIRATION =           2710.99
           STREAMFLOW =          46310.61             STREAMFLOW =           8182.50
     GW BOUNDARY FLOW =            252.78       GW BOUNDARY FLOW =             36.30

   INFLOWS - OUTFLOWS =        -124942.34     INFLOWS - OUTFLOWS =         -10929.80
             --------                                   --------

 TOTAL STORAGE CHANGE =        -124865.64         STORAGE CHANGE =         -10934.21
       --------------                             --------------
         LAND SURFACE =                             LAND SURFACE =                  
            SOIL ZONE =         -33477.47              SOIL ZONE =          -1008.92
     UNSATURATED ZONE =        -206992.05       UNSATURATED ZONE =         -28405.44
       SATURATED ZONE =         115603.88         SATURATED ZONE =          18480.15

 OVERALL BUDGET ERROR =            -76.70           BUDGET ERROR =              4.42


  PERCENT DISCREPANCY =             -0.06    PERCENT DISCREPANCY =              0.04



1
 SUMMARY VOLUMETRIC BUDGET FOR GSFLOW 
 DATE: 10 14 1990              CUMULATIVE TIME STEP:      14
 MODFLOW STRESS PERIOD      2     CURRENT TIME STEP:      14     ITERATIONS:       7

 -----------------------------------------------------------------------------------

   CUMULATIVE VOLUMES               L**3   RATES FOR THIS TIME STEP           L**3/T
   ------------------                      ------------------------

                                     IN                                         IN
                                     --                                         --
        PRECIPITATION =                            PRECIPITATION =                  
           STREAMFLOW =                               STREAMFLOW =                  
     GW BOUNDARY FLOW =                         GW BOUNDARY FLOW =                  


                                    OUT                                        OUT
                                    ---                                        ---
   EVAPOTRANSPIRATION =         147891.53     EVAPOTRANSPIRATION =          12861.84
           STREAMFLOW =         101446.99             STREAMFLOW =           7522.33
     GW BOUNDARY FLOW =            506.66       GW BOUNDARY FLOW =             36.26

   INFLOWS - OUTFLOWS =        -249845.19     INFLOWS - OUTFLOWS =         -20420.44
             --------                                   --------

 TOTAL STORAGE CHANGE =        -249794.81         STORAGE CHANGE =         -20422.47
       --------------                             --------------
         LAND SURFACE =                             LAND SURFACE =                  
            SOIL ZONE =         -58388.60              SOIL ZONE =          -4449.96
     UNSATURATED ZONE =        -386083.89       UNSATURATED ZONE =         -24145.24
       SATURATED ZONE =         194677.69         SATURATED ZONE =           8172.73

 OVERALL BUDGET ERROR =            -50.38           BUDGET ERROR =              2.04


  PERCENT DISCREPANCY =             -0.02    PERCENT DISCREPANCY =              0.01



1
 SUMMARY VOLUMETRIC BUDGET FOR GSFLOW 
 DATE: 10 21 1990              CUMULATIVE TIME STEP:      21
 MODFLOW STRESS PERIOD      2     CURRENT TIME STEP:      21     ITERATIONS:       6

 -----------------------------------------------------------------------------------

   CUMULATIVE VOLUMES               L**3   RATES FOR THIS TIME STEP           L**3/T
   ------------------                      ------------------------

                                     IN                                         IN
                                     --                                         --
        PRECIPITATION =         188432.87          PRECIPITATION =                  
           STREAMFLOW =                               STREAMFLOW =                  
     GW BOUNDARY FLOW =                         GW BOUNDARY FLOW =                  


                                    OUT                                        OUT
                                    ---                                        ---
   EVAPOTRANSPIRATION =         230093.15     EVAPOTRANSPIRATION =          35786.73
           STREAMFLOW =         165405.75             STREAMFLOW =          10214.62
     GW BOUNDARY FLOW =            761.50       GW BOUNDARY FLOW =             36.52

   INFLOWS - OUTFLOWS =        -207827.53     INFLOWS - OUTFLOWS =         -46037.88
             --------                                   --------

 TOTAL STORAGE CHANGE =        -207801.60         STORAGE CHANGE =         -46045.29
       --------------                             --------------
         LAND SURFACE =          15977.62           LAND SURFACE =         -34861.64
            SOIL ZONE =          57280.80              SOIL ZONE =           -416.21
     UNSATURATED ZONE =        -554111.81       UNSATURATED ZONE =         -23742.45
       SATURATED ZONE =         273051.78         SATURATED ZONE =          12975.01

 OVERALL BUDGET ERROR =            -25.93           BUDGET ERROR =              7.42


  PERCENT DISCREPANCY =             -0.01    PERCENT DISCREPANCY =              0.02



1
 SUMMARY VOLUMETRIC BUDGET FOR GSFLOW 
 DATE: 10 28 1990              CUMULATIVE TIME STEP:      28
 MODFLOW STRESS PERIOD      2     CURRENT TIME STEP:      28     ITERATIONS:       7

 -----------------------------------------------------------------------------------

   CUMULATIVE VOLUMES               L**3   RATES FOR THIS TIME STEP           L**3/T
   ------------------                      ------------------------

                                     IN                                         IN
                                     --                                         --
        PRECIPITATION =         188432.87          PRECIPITATION =                  
           STREAMFLOW =                               STREAMFLOW =                  
     GW BOUNDARY FLOW =                         GW BOUNDARY FLOW =                  


                                    OUT                                        OUT
                                    ---                                        ---
   EVAPOTRANSPIRATION =         317687.77     EVAPOTRANSPIRATION =           8758.22
           STREAMFLOW =         227733.81             STREAMFLOW =           9122.41
     GW BOUNDARY FLOW =           1016.21       GW BOUNDARY FLOW =             36.38

   INFLOWS - OUTFLOWS =        -358004.93     INFLOWS - OUTFLOWS =         -17917.01
             --------                                   --------

 TOTAL STORAGE CHANGE =        -358005.78         STORAGE CHANGE =         -17919.86
       --------------                             --------------
         LAND SURFACE =                             LAND SURFACE =                  
            SOIL ZONE =          29059.73              SOIL ZONE =          -3312.79
     UNSATURATED ZONE =        -713095.48       UNSATURATED ZONE =         -22443.79
       SATURATED ZONE =         326029.98         SATURATED ZONE =           7836.72

 OVERALL BUDGET ERROR =              0.85           BUDGET ERROR =              2.85


  PERCENT DISCREPANCY =              0.00    PERCENT DISCREPANCY =              0.02



1
 SUMMARY VOLUMETRIC BUDGET FOR GSFLOW 
 DATE: 11 04 1990              CUMULATIVE TIME STEP:       4
 MODFLOW STRESS PERIOD      3     CURRENT TIME STEP:      35     ITERATIONS:       6

 -----------------------------------------------------------------------------------

   CUMULATIVE VOLUMES               L**3   RATES FOR THIS TIME STEP           L**3/T
   ------------------                      ------------------------

                                     IN                                         IN
                                     --                                         --
        PRECIPITATION =         703113.06          PRECIPITATION =                  
           STREAMFLOW =                               STREAMFLOW =                  
     GW BOUNDARY FLOW =                         GW BOUNDARY FLOW =                  


                                    OUT                                        OUT
                                    ---                                        ---
   EVAPOTRANSPIRATION =         373173.97     EVAPOTRANSPIRATION =          25484.80
           STREAMFLOW =         299066.40             STREAMFLOW =          10643.67
     GW BOUNDARY FLOW =           1271.21       GW BOUNDARY FLOW =             36.43

   INFLOWS - OUTFLOWS =          29601.48     INFLOWS - OUTFLOWS =         -36164.90
             --------                                   --------

 TOTAL STORAGE CHANGE =          29557.46         STORAGE CHANGE =         -36172.19
       --------------                             --------------
         LAND SURFACE =          71009.70           LAND SURFACE =         -84159.07
            SOIL ZONE =         427956.73              SOIL ZONE =          58906.47
     UNSATURATED ZONE =        -870169.70       UNSATURATED ZONE =         -22257.61
       SATURATED ZONE =         400760.74         SATURATED ZONE =          11338.02

 OVERALL BUDGET ERROR =             44.02           BUDGET ERROR =              7.28


  PERCENT DISCREPANCY =              0.01    PERCENT DISCREPANCY =              0.02



1
 SUMMARY VOLUMETRIC BUDGET FOR GSFLOW 
 DATE: 11 11 1990              CUMULATIVE TIME STEP:      11
 MODFLOW STRESS PERIOD      3     CURRENT TIME STEP:      42     ITERATIONS:       6

 -----------------------------------------------------------------------------------

   CUMULATIVE VOLUMES               L**3   RATES FOR THIS TIME STEP           L**3/T
   ------------------                      ------------------------

                                     IN                                         IN
                                     --                                         --
        PRECIPITATION =         703113.06          PRECIPITATION =                  
           STREAMFLOW =                               STREAMFLOW =                  
     GW BOUNDARY FLOW =                         GW BOUNDARY FLOW =                  


                                    OUT                                        OUT
                                    ---                                        ---
   EVAPOTRANSPIRATION =         443668.63     EVAPOTRANSPIRATION =          11756.69
           STREAMFLOW =         370767.36             STREAMFLOW =           9783.31
     GW BOUNDARY FLOW =           1525.54       GW BOUNDARY FLOW =             36.26

   INFLOWS - OUTFLOWS =        -112848.47     INFLOWS - OUTFLOWS =         -21576.27
             --------                                   --------

 TOTAL STORAGE CHANGE =        -112935.30         STORAGE CHANGE =         -21581.64
       --------------                             --------------
         LAND SURFACE =            295.92           LAND SURFACE =           -859.89
            SOIL ZONE =         445466.82              SOIL ZONE =          -6268.86
     UNSATURATED ZONE =       -1020653.07       UNSATURATED ZONE =         -20816.01
       SATURATED ZONE =         461955.03         SATURATED ZONE =           6363.12

 OVERALL BUDGET ERROR =             86.84           BUDGET ERROR =              5.38


  PERCENT DISCREPANCY =              0.01    PERCENT DISCREPANCY =              0.02



1
 SUMMARY VOLUMETRIC BUDGET FOR GSFLOW 
 DATE: 11 18 1990              CUMULATIVE TIME STEP:      18
 MODFLOW STRESS PERIOD      3     CURRENT TIME STEP:      49     ITERATIONS:       6

 -----------------------------------------------------------------------------------

   CUMULATIVE VOLUMES               L**3   RATES FOR THIS TIME STEP           L**3/T
   ------------------                      ------------------------

                                     IN                                         IN
                                     --                                         --
        PRECIPITATION =         747883.35          PRECIPITATION =                  
           STREAMFLOW =                               STREAMFLOW =                  
     GW BOUNDARY FLOW =                         GW BOUNDARY FLOW =                  


                                    OUT                                        OUT
                                    ---                                        ---
   EVAPOTRANSPIRATION =         511255.69     EVAPOTRANSPIRATION =           5389.22
           STREAMFLOW =         443351.81             STREAMFLOW =          10804.02
     GW BOUNDARY FLOW =           1779.18       GW BOUNDARY FLOW =             36.21

   INFLOWS - OUTFLOWS =        -208503.33     INFLOWS - OUTFLOWS =         -16229.45
             --------                                   --------

 TOTAL STORAGE CHANGE =        -208619.56         STORAGE CHANGE =         -16235.09
       --------------                             --------------
         LAND SURFACE =          10077.61           LAND SURFACE =          -4199.79
            SOIL ZONE =         428637.80              SOIL ZONE =           -529.66
     UNSATURATED ZONE =       -1165359.06       UNSATURATED ZONE =         -20548.61
       SATURATED ZONE =         518024.09         SATURATED ZONE =           9042.96

 OVERALL BUDGET ERROR =            116.23           BUDGET ERROR =              5.65


  PERCENT DISCREPANCY =              0.01    PERCENT DISCREPANCY =              0.03



1
 SUMMARY VOLUMETRIC BUDGET FOR GSFLOW 
 DATE: 11 25 1990              CUMULATIVE TIME STEP:      25
 MODFLOW STRESS PERIOD      3     CURRENT TIME STEP:      56     ITERATIONS:       6

 -----------------------------------------------------------------------------------

   CUMULATIVE VOLUMES               L**3   RATES FOR THIS TIME STEP           L**3/T
   ------------------                      ------------------------

                                     IN                                         IN
                                     --                                         --
        PRECIPITATION =        1009043.38          PRECIPITATION =         186542.88
           STREAMFLOW =                               STREAMFLOW =                  
     GW BOUNDARY FLOW =                         GW BOUNDARY FLOW =                  


                                    OUT                                        OUT
                                    ---                                        ---
   EVAPOTRANSPIRATION =         571133.63     EVAPOTRANSPIRATION =           3818.59
           STREAMFLOW =         520085.40             STREAMFLOW =          10888.24
     GW BOUNDARY FLOW =           2032.39       GW BOUNDARY FLOW =             36.11

   INFLOWS - OUTFLOWS =         -84208.05     INFLOWS - OUTFLOWS =         171799.93
             --------                                   --------

 TOTAL STORAGE CHANGE =         -84355.76         STORAGE CHANGE =         171795.56
       --------------                             --------------
         LAND SURFACE =          92124.67           LAND SURFACE =          75233.82
            SOIL ZONE =         550437.78              SOIL ZONE =         108361.37
     UNSATURATED ZONE =       -1305979.50       UNSATURATED ZONE =         -19678.17
       SATURATED ZONE =         579061.28         SATURATED ZONE =           7878.54

 OVERALL BUDGET ERROR =            147.72           BUDGET ERROR =              4.37


  PERCENT DISCREPANCY =              0.01    PERCENT DISCREPANCY =              0.00



1
 SUMMARY VOLUMETRIC BUDGET FOR GSFLOW 
 DATE: 12 02 1990              CUMULATIVE TIME STEP:       2
 MODFLOW STRESS PERIOD      4     CURRENT TIME STEP:      63     ITERATIONS:       6

 -----------------------------------------------------------------------------------

   CUMULATIVE VOLUMES               L**3   RATES FOR THIS TIME STEP           L**3/T
   ------------------                      ------------------------

                                     IN                                         IN
                                     --                                         --
        PRECIPITATION =        1449284.55          PRECIPITATION =                  
           STREAMFLOW =                               STREAMFLOW =                  
     GW BOUNDARY FLOW =                         GW BOUNDARY FLOW =                  


                                    OUT                                        OUT
                                    ---                                        ---
   EVAPOTRANSPIRATION =         578703.26     EVAPOTRANSPIRATION =            374.48
           STREAMFLOW =         598043.65             STREAMFLOW =          11187.80
     GW BOUNDARY FLOW =           2285.21       GW BOUNDARY FLOW =             36.10

   INFLOWS - OUTFLOWS =         270252.43     INFLOWS - OUTFLOWS =         -11598.38
             --------                                   --------

 TOTAL STORAGE CHANGE =         270075.50         STORAGE CHANGE =         -11602.14
       --------------                             --------------
         LAND SURFACE =         493448.43           LAND SURFACE =           -453.37
            SOIL ZONE =         582731.74              SOIL ZONE =            216.38
     UNSATURATED ZONE =       -1441161.33       UNSATURATED ZONE =         -18946.08
       SATURATED ZONE =         635056.66         SATURATED ZONE =           7580.92

 OVERALL BUDGET ERROR =            176.93           BUDGET ERROR =              3.76


  PERCENT DISCREPANCY =              0.01    PERCENT DISCREPANCY =              0.03



1
 SUMMARY VOLUMETRIC BUDGET FOR GSFLOW 
 DATE: 12 09 1990              CUMULATIVE TIME STEP:       9
 MODFLOW STRESS PERIOD      4     CURRENT TIME STEP:      70     ITERATIONS:       6

 -----------------------------------------------------------------------------------

   CUMULATIVE VOLUMES               L**3   RATES FOR THIS TIME STEP           L**3/T
   ------------------                      ------------------------

                                     IN                                         IN
                                     --                                         --
        PRECIPITATION =        1449284.55          PRECIPITATION =                  
           STREAMFLOW =                               STREAMFLOW =                  
     GW BOUNDARY FLOW =                         GW BOUNDARY FLOW =                  


                                    OUT                                        OUT
                                    ---                                        ---
   EVAPOTRANSPIRATION =         655815.81     EVAPOTRANSPIRATION =          13669.98
           STREAMFLOW =         676466.38             STREAMFLOW =          10977.71
     GW BOUNDARY FLOW =           2537.55       GW BOUNDARY FLOW =             35.99

   INFLOWS - OUTFLOWS =         114464.81     INFLOWS - OUTFLOWS =         -24683.67
             --------                                   --------

 TOTAL STORAGE CHANGE =         114266.72         STORAGE CHANGE =         -24685.99
       --------------                             --------------
         LAND SURFACE =          66382.66           LAND SURFACE =         -46525.53
            SOIL ZONE =         937867.62              SOIL ZONE =          34925.18
     UNSATURATED ZONE =       -1570014.08       UNSATURATED ZONE =         -17906.79
       SATURATED ZONE =         680030.52         SATURATED ZONE =           4821.15

 OVERALL BUDGET ERROR =            198.09           BUDGET ERROR =              2.31


  PERCENT DISCREPANCY =              0.01    PERCENT DISCREPANCY =              0.01



1
 SUMMARY VOLUMETRIC BUDGET FOR GSFLOW 
 DATE: 12 16 1990              CUMULATIVE TIME STEP:      16
 MODFLOW STRESS PERIOD      4     CURRENT TIME STEP:      77     ITERATIONS:       6

 -----------------------------------------------------------------------------------

   CUMULATIVE VOLUMES               L**3   RATES FOR THIS TIME STEP           L**3/T
   ------------------                      ------------------------

                                     IN                                         IN
                                     --                                         --
        PRECIPITATION =        1804962.84          PRECIPITATION =                  
           STREAMFLOW =                               STREAMFLOW =                  
     GW BOUNDARY FLOW =                         GW BOUNDARY FLOW =                  


                                    OUT                                        OUT
                                    ---                                        ---
   EVAPOTRANSPIRATION =         684145.76     EVAPOTRANSPIRATION =                  
           STREAMFLOW =         756297.47             STREAMFLOW =          11579.29
     GW BOUNDARY FLOW =           2789.28       GW BOUNDARY FLOW =             35.93

   INFLOWS - OUTFLOWS =         361730.32     INFLOWS - OUTFLOWS =         -11615.23
             --------                                   --------

 TOTAL STORAGE CHANGE =         361512.12         STORAGE CHANGE =         -11617.19
       --------------                             --------------
         LAND SURFACE =         256077.36           LAND SURFACE =                  
            SOIL ZONE =        1079887.33              SOIL ZONE =            158.08
     UNSATURATED ZONE =       -1693706.75       UNSATURATED ZONE =         -17410.64
       SATURATED ZONE =         719254.18         SATURATED ZONE =           5635.37

 OVERALL BUDGET ERROR =            218.20           BUDGET ERROR =              1.96


  PERCENT DISCREPANCY =              0.01    PERCENT DISCREPANCY =              0.02



1
 SUMMARY VOLUMETRIC BUDGET FOR GSFLOW 
 DATE: 12 23 1990              CUMULATIVE TIME STEP:      23
 MODFLOW STRESS PERIOD      4     CURRENT TIME STEP:      84     ITERATIONS:       5

 -----------------------------------------------------------------------------------

   CUMULATIVE VOLUMES               L**3   RATES FOR THIS TIME STEP           L**3/T
   ------------------                      ------------------------

                                     IN                                         IN
                                     --                                         --
        PRECIPITATION =        2276236.55          PRECIPITATION =                  
           STREAMFLOW =                               STREAMFLOW =                  
     GW BOUNDARY FLOW =                         GW BOUNDARY FLOW =                  


                                    OUT                                        OUT
                                    ---                                        ---
   EVAPOTRANSPIRATION =         685520.70     EVAPOTRANSPIRATION =                  
           STREAMFLOW =         837772.12             STREAMFLOW =          11687.32
     GW BOUNDARY FLOW =           3040.46       GW BOUNDARY FLOW =             35.85

   INFLOWS - OUTFLOWS =         749903.27     INFLOWS - OUTFLOWS =         -11723.17
             --------                                   --------

 TOTAL STORAGE CHANGE =         749672.39         STORAGE CHANGE =         -11726.34
       --------------                             --------------
         LAND SURFACE =         725980.66           LAND SURFACE =                  
            SOIL ZONE =        1081036.21              SOIL ZONE =            169.86
     UNSATURATED ZONE =       -1813004.88       UNSATURATED ZONE =         -16765.74
       SATURATED ZONE =         755660.41         SATURATED ZONE =           4869.54

 OVERALL BUDGET ERROR =            230.88           BUDGET ERROR =              3.17


  PERCENT DISCREPANCY =              0.01    PERCENT DISCREPANCY =              0.03



1
 SUMMARY VOLUMETRIC BUDGET FOR GSFLOW 
 DATE: 12 30 1990              CUMULATIVE TIME STEP:      30
 MODFLOW STRESS PERIOD      4     CURRENT TIME STEP:      91     ITERATIONS:       5

 -----------------------------------------------------------------------------------

   CUMULATIVE VOLUMES               L**3   RATES FOR THIS TIME STEP           L**3/T
   ------------------                      ------------------------

                                     IN                                         IN
                                     --                                         --
        PRECIPITATION =        2276236.55          PRECIPITATION =                  
           STREAMFLOW =                               STREAMFLOW =                  
     GW BOUNDARY FLOW =                         GW BOUNDARY FLOW =                  


                                    OUT                                        OUT
                                    ---                                        ---
   EVAPOTRANSPIRATION =         686273.35     EVAPOTRANSPIRATION =                  
           STREAMFLOW =         919986.11             STREAMFLOW =          11783.72
     GW BOUNDARY FLOW =           3291.05       GW BOUNDARY FLOW =             35.76

   INFLOWS - OUTFLOWS =         666686.04     INFLOWS - OUTFLOWS =         -11819.49
             --------                                   --------

 TOTAL STORAGE CHANGE =         666439.86         STORAGE CHANGE =         -11820.66
       --------------                             --------------
         LAND SURFACE =         725228.17           LAND SURFACE =                  
            SOIL ZONE =        1082276.29              SOIL ZONE =            181.52
     UNSATURATED ZONE =       -1927722.29       UNSATURATED ZONE =         -16112.75
       SATURATED ZONE =         786657.69         SATURATED ZONE =           4110.57

 OVERALL BUDGET ERROR =            246.18           BUDGET ERROR =              1.17


  PERCENT DISCREPANCY =              0.01    PERCENT DISCREPANCY =              0.01



1
 SUMMARY VOLUMETRIC BUDGET FOR GSFLOW 
 DATE: 01 06 1991              CUMULATIVE TIME STEP:       6
 MODFLOW STRESS PERIOD      5     CURRENT TIME STEP:      98     ITERATIONS:       7

 -----------------------------------------------------------------------------------

   CUMULATIVE VOLUMES               L**3   RATES FOR THIS TIME STEP           L**3/T
   ------------------                      ------------------------

                                     IN                                         IN
                                     --                                         --
        PRECIPITATION =        2276236.55          PRECIPITATION =                  
           STREAMFLOW =                               STREAMFLOW =                  
     GW BOUNDARY FLOW =                         GW BOUNDARY FLOW =                  


                                    OUT                                        OUT
                                    ---                                        ---
   EVAPOTRANSPIRATION =         709544.18     EVAPOTRANSPIRATION =           2582.39
           STREAMFLOW =        1001609.23             STREAMFLOW =          11694.32
     GW BOUNDARY FLOW =           3541.88       GW BOUNDARY FLOW =             35.82

   INFLOWS - OUTFLOWS =         561541.26     INFLOWS - OUTFLOWS =         -14312.53
             --------                                   --------

 TOTAL STORAGE CHANGE =         561293.19         STORAGE CHANGE =         -14312.33
       --------------                             --------------
         LAND SURFACE =         620283.30           LAND SURFACE =          -6112.33
            SOIL ZONE =        1165286.58              SOIL ZONE =           3722.34
     UNSATURATED ZONE =       -2038146.96       UNSATURATED ZONE =         -15522.41
       SATURATED ZONE =         813870.28         SATURATED ZONE =           3600.07

 OVERALL BUDGET ERROR =            248.06           BUDGET ERROR =             -0.19


  PERCENT DISCREPANCY =              0.01    PERCENT DISCREPANCY =             -0.00



1
 SUMMARY VOLUMETRIC BUDGET FOR GSFLOW 
 DATE: 01 13 1991              CUMULATIVE TIME STEP:      13
 MODFLOW STRESS PERIOD      5     CURRENT TIME STEP:     105     ITERATIONS:       6

 -----------------------------------------------------------------------------------

   CUMULATIVE VOLUMES               L**3   RATES FOR THIS TIME STEP           L**3/T
   ------------------                      ------------------------

                                     IN                                         IN
                                     --                                         --
        PRECIPITATION =        2596386.94          PRECIPITATION =          10327.43
           STREAMFLOW =                               STREAMFLOW =                  
     GW BOUNDARY FLOW =              0.17       GW BOUNDARY FLOW =              0.06


                                    OUT                                        OUT
                                    ---                                        ---
   EVAPOTRANSPIRATION =         769283.02     EVAPOTRANSPIRATION =          16579.67
           STREAMFLOW =        1084059.21             STREAMFLOW =          11653.59
     GW BOUNDARY FLOW =           3792.39       GW BOUNDARY FLOW =             35.77

   INFLOWS - OUTFLOWS =         739252.49     INFLOWS - OUTFLOWS =         -17941.54
             --------                                   --------

 TOTAL STORAGE CHANGE =         739014.33         STORAGE CHANGE =         -17940.01
       --------------                             --------------
         LAND SURFACE =         586364.86           LAND SURFACE =        -135127.18
            SOIL ZONE =        1462404.49              SOIL ZONE =         130022.20
     UNSATURATED ZONE =       -2144195.26       UNSATURATED ZONE =         -14813.60
       SATURATED ZONE =         834440.23         SATURATED ZONE =           1978.58

 OVERALL BUDGET ERROR =            238.16           BUDGET ERROR =             -1.54


  PERCENT DISCREPANCY =              0.01    PERCENT DISCREPANCY =             -0.01



1
 SUMMARY VOLUMETRIC BUDGET FOR GSFLOW 
 DATE: 01 20 1991              CUMULATIVE TIME STEP:      20
 MODFLOW STRESS PERIOD      5     CURRENT TIME STEP:     112     ITERATIONS:       6

 -----------------------------------------------------------------------------------

   CUMULATIVE VOLUMES               L**3   RATES FOR THIS TIME STEP           L**3/T
   ------------------                      ------------------------

                                     IN                                         IN
                                     --                                         --
        PRECIPITATION =        2596386.94          PRECIPITATION =                  
           STREAMFLOW =                               STREAMFLOW =                  
     GW BOUNDARY FLOW =              0.93       GW BOUNDARY FLOW =              0.14


                                    OUT                                        OUT
                                    ---                                        ---
   EVAPOTRANSPIRATION =         837539.03     EVAPOTRANSPIRATION =           1811.76
           STREAMFLOW =        1165892.09             STREAMFLOW =          11862.95
     GW BOUNDARY FLOW =           4042.89       GW BOUNDARY FLOW =             35.79

   INFLOWS - OUTFLOWS =         588913.87     INFLOWS - OUTFLOWS =         -13710.35
             --------                                   --------

 TOTAL STORAGE CHANGE =         588685.62         STORAGE CHANGE =         -13707.92
       --------------                             --------------
         LAND SURFACE =         422210.59           LAND SURFACE =           -295.67
            SOIL ZONE =        1560865.89              SOIL ZONE =          -1274.12
     UNSATURATED ZONE =       -2246066.80       UNSATURATED ZONE =         -14313.32
       SATURATED ZONE =         851675.94         SATURATED ZONE =           2175.20

 OVERALL BUDGET ERROR =            228.24           BUDGET ERROR =             -2.44


  PERCENT DISCREPANCY =              0.01    PERCENT DISCREPANCY =             -0.02



1
 SUMMARY VOLUMETRIC BUDGET FOR GSFLOW 
 DATE: 01 27 1991              CUMULATIVE TIME STEP:      27
 MODFLOW STRESS PERIOD      5     CURRENT TIME STEP:     119     ITERATIONS:       5

 -----------------------------------------------------------------------------------

   CUMULATIVE VOLUMES               L**3   RATES FOR THIS TIME STEP           L**3/T
   ------------------                      ------------------------

                                     IN                                         IN
                                     --                                         --
        PRECIPITATION =        2596386.94          PRECIPITATION =                  
           STREAMFLOW =                               STREAMFLOW =                  
     GW BOUNDARY FLOW =              2.25       GW BOUNDARY FLOW =              0.22


                                    OUT                                        OUT
                                    ---                                        ---
   EVAPOTRANSPIRATION =         858507.78     EVAPOTRANSPIRATION =           1218.06
           STREAMFLOW =        1249357.02             STREAMFLOW =          11968.53
     GW BOUNDARY FLOW =           4293.41       GW BOUNDARY FLOW =             35.79

   INFLOWS - OUTFLOWS =         484230.98     INFLOWS - OUTFLOWS =         -13222.16
             --------                                   --------

 TOTAL STORAGE CHANGE =         484043.28         STORAGE CHANGE =         -13215.23
       --------------                             --------------
         LAND SURFACE =         394226.40           LAND SURFACE =           -109.80
            SOIL ZONE =        1569956.45              SOIL ZONE =           -886.61
     UNSATURATED ZONE =       -2344078.17       UNSATURATED ZONE =         -13755.35
       SATURATED ZONE =         863938.60         SATURATED ZONE =           1536.53

 OVERALL BUDGET ERROR =            187.70           BUDGET ERROR =             -6.93


  PERCENT DISCREPANCY =              0.01    PERCENT DISCREPANCY =             -0.05



1
 SUMMARY VOLUMETRIC BUDGET FOR GSFLOW 
 DATE: 02 03 1991              CUMULATIVE TIME STEP:       3
 MODFLOW STRESS PERIOD      6     CURRENT TIME STEP:     126     ITERATIONS:       6

 -----------------------------------------------------------------------------------

   CUMULATIVE VOLUMES               L**3   RATES FOR THIS TIME STEP           L**3/T
   ------------------                      ------------------------

                                     IN                                         IN
                                     --                                         --
        PRECIPITATION =        3228422.31          PRECIPITATION =          30459.53
           STREAMFLOW =                               STREAMFLOW =                  
     GW BOUNDARY FLOW =              4.09       GW BOUNDARY FLOW =              0.29


                                    OUT                                        OUT
                                    ---                                        ---
   EVAPOTRANSPIRATION =         956456.84     EVAPOTRANSPIRATION =          19919.44
           STREAMFLOW =        1333059.10             STREAMFLOW =          11991.50
     GW BOUNDARY FLOW =           4543.90       GW BOUNDARY FLOW =             35.78

   INFLOWS - OUTFLOWS =         934366.56     INFLOWS - OUTFLOWS =          -1486.89
             --------                                   --------

 TOTAL STORAGE CHANGE =         934224.27         STORAGE CHANGE =          -1483.09
       --------------                             --------------
         LAND SURFACE =         184727.70           LAND SURFACE =         -28670.24
            SOIL ZONE =        2317315.65              SOIL ZONE =          39685.11
     UNSATURATED ZONE =       -2438143.72       UNSATURATED ZONE =         -13195.16
       SATURATED ZONE =         870324.64         SATURATED ZONE =            697.19

 OVERALL BUDGET ERROR =            142.29           BUDGET ERROR =             -3.80


  PERCENT DISCREPANCY =              0.00    PERCENT DISCREPANCY =             -0.01



1
 SUMMARY VOLUMETRIC BUDGET FOR GSFLOW 
 DATE: 02 10 1991              CUMULATIVE TIME STEP:      10
 MODFLOW STRESS PERIOD      6     CURRENT TIME STEP:     133     ITERATIONS:       5

 -----------------------------------------------------------------------------------

   CUMULATIVE VOLUMES               L**3   RATES FOR THIS TIME STEP           L**3/T
   ------------------                      ------------------------

                                     IN                                         IN
                                     --                                         --
        PRECIPITATION =        3510173.01          PRECIPITATION =                  
           STREAMFLOW =                               STREAMFLOW =                  
     GW BOUNDARY FLOW =              6.42       GW BOUNDARY FLOW =              0.36


                                    OUT                                        OUT
                                    ---                                        ---
   EVAPOTRANSPIRATION =        1121816.72     EVAPOTRANSPIRATION =          25233.28
           STREAMFLOW =        1417351.24             STREAMFLOW =          12063.95
     GW BOUNDARY FLOW =           4794.31       GW BOUNDARY FLOW =             35.76

   INFLOWS - OUTFLOWS =         966217.16     INFLOWS - OUTFLOWS =         -37332.63
             --------                                   --------

 TOTAL STORAGE CHANGE =         966125.24         STORAGE CHANGE =         -37322.75
       --------------                             --------------
         LAND SURFACE =          90050.80           LAND SURFACE =         -12330.62
            SOIL ZONE =        2530804.14              SOIL ZONE =         -12517.07
     UNSATURATED ZONE =       -2528759.45       UNSATURATED ZONE =         -12710.04
       SATURATED ZONE =         874029.74         SATURATED ZONE =            234.98

 OVERALL BUDGET ERROR =             91.92           BUDGET ERROR =             -9.88


  PERCENT DISCREPANCY =              0.00    PERCENT DISCREPANCY =             -0.03



1
 SUMMARY VOLUMETRIC BUDGET FOR GSFLOW 
 DATE: 02 17 1991              CUMULATIVE TIME STEP:      17
 MODFLOW STRESS PERIOD      6     CURRENT TIME STEP:     140     ITERATIONS:       5

 -----------------------------------------------------------------------------------

   CUMULATIVE VOLUMES               L**3   RATES FOR THIS TIME STEP           L**3/T
   ------------------                      ------------------------

                                     IN                                         IN
                                     --                                         --
        PRECIPITATION =        3510173.01          PRECIPITATION =                  
           STREAMFLOW =                               STREAMFLOW =                  
     GW BOUNDARY FLOW =              9.22       GW BOUNDARY FLOW =              0.43


                                    OUT                                        OUT
                                    ---                                        ---
   EVAPOTRANSPIRATION =        1361389.71     EVAPOTRANSPIRATION =          23078.71
           STREAMFLOW =        1502028.57             STREAMFLOW =          12121.17
     GW BOUNDARY FLOW =           5044.39       GW BOUNDARY FLOW =             35.70

   INFLOWS - OUTFLOWS =         641719.55     INFLOWS - OUTFLOWS =         -35235.14
             --------                                   --------

 TOTAL STORAGE CHANGE =         641702.40         STORAGE CHANGE =         -35224.08
       --------------                             --------------
         LAND SURFACE =          18163.74           LAND SURFACE =          -1654.25
            SOIL ZONE =        2365084.02              SOIL ZONE =         -21286.68
     UNSATURATED ZONE =       -2615083.17       UNSATURATED ZONE =         -12101.01
       SATURATED ZONE =         873537.80         SATURATED ZONE =           -182.13

 OVERALL BUDGET ERROR =             17.16           BUDGET ERROR =            -11.06


  PERCENT DISCREPANCY =              0.00    PERCENT DISCREPANCY =             -0.03



1
 SUMMARY VOLUMETRIC BUDGET FOR GSFLOW 
 DATE: 02 24 1991              CUMULATIVE TIME STEP:      24
 MODFLOW STRESS PERIOD      6     CURRENT TIME STEP:     147     ITERATIONS:       5

 -----------------------------------------------------------------------------------

   CUMULATIVE VOLUMES               L**3   RATES FOR THIS TIME STEP           L**3/T
   ------------------                      ------------------------

                                     IN                                         IN
                                     --                                         --
        PRECIPITATION =        3510173.01          PRECIPITATION =                  
           STREAMFLOW =                               STREAMFLOW =                  
     GW BOUNDARY FLOW =             12.55       GW BOUNDARY FLOW =              0.51


                                    OUT                                        OUT
                                    ---                                        ---
   EVAPOTRANSPIRATION =        1576571.13     EVAPOTRANSPIRATION =          21920.93
           STREAMFLOW =        1586999.27             STREAMFLOW =          12146.40
     GW BOUNDARY FLOW =           5294.01       GW BOUNDARY FLOW =             35.63

   INFLOWS - OUTFLOWS =         341321.15     INFLOWS - OUTFLOWS =         -34102.45
             --------                                   --------

 TOTAL STORAGE CHANGE =         341386.91         STORAGE CHANGE =         -34089.70
       --------------                             --------------
         LAND SURFACE =           6686.42           LAND SURFACE =           -239.07
            SOIL ZONE =        2162632.79              SOIL ZONE =         -21467.29
     UNSATURATED ZONE =       -2698022.73       UNSATURATED ZONE =         -11657.09
       SATURATED ZONE =         870090.43         SATURATED ZONE =           -726.26

 OVERALL BUDGET ERROR =            -65.76           BUDGET ERROR =            -12.75


  PERCENT DISCREPANCY =             -0.00    PERCENT DISCREPANCY =             -0.04



1
 SUMMARY VOLUMETRIC BUDGET FOR GSFLOW 
 DATE: 03 03 1991              CUMULATIVE TIME STEP:       3
 MODFLOW STRESS PERIOD      7     CURRENT TIME STEP:     154     ITERATIONS:       5

 -----------------------------------------------------------------------------------

   CUMULATIVE VOLUMES               L**3   RATES FOR THIS TIME STEP           L**3/T
   ------------------                      ------------------------

                                     IN                                         IN
                                     --                                         --
        PRECIPITATION =        6220189.63          PRECIPITATION =        1243187.24
           STREAMFLOW =                               STREAMFLOW =                  
     GW BOUNDARY FLOW =             16.42       GW BOUNDARY FLOW =              0.59


                                    OUT                                        OUT
                                    ---                                        ---
   EVAPOTRANSPIRATION =        1728891.73     EVAPOTRANSPIRATION =           7956.07
           STREAMFLOW =        1671734.37             STREAMFLOW =          12044.23
     GW BOUNDARY FLOW =           5543.12       GW BOUNDARY FLOW =             35.54

   INFLOWS - OUTFLOWS =        2814036.84     INFLOWS - OUTFLOWS =        1223151.99
             --------                                   --------

 TOTAL STORAGE CHANGE =        2814190.28         STORAGE CHANGE =        1223166.24
       --------------                             --------------
         LAND SURFACE =        2505892.53           LAND SURFACE =        1046737.06
            SOIL ZONE =        2224400.16              SOIL ZONE =         189230.10
     UNSATURATED ZONE =       -2777831.28       UNSATURATED ZONE =         -11195.50
       SATURATED ZONE =         861728.88         SATURATED ZONE =          -1605.43

 OVERALL BUDGET ERROR =           -153.44           BUDGET ERROR =            -14.25


  PERCENT DISCREPANCY =             -0.00    PERCENT DISCREPANCY =             -0.00



1
 SUMMARY VOLUMETRIC BUDGET FOR GSFLOW 
 DATE: 03 10 1991              CUMULATIVE TIME STEP:      10
 MODFLOW STRESS PERIOD      7     CURRENT TIME STEP:     161     ITERATIONS:       6

 -----------------------------------------------------------------------------------

   CUMULATIVE VOLUMES               L**3   RATES FOR THIS TIME STEP           L**3/T
   ------------------                      ------------------------

                                     IN                                         IN
                                     --                                         --
        PRECIPITATION =        8746030.42          PRECIPITATION =          32888.55
           STREAMFLOW =                               STREAMFLOW =                  
     GW BOUNDARY FLOW =             20.81       GW BOUNDARY FLOW =              0.66


                                    OUT                                        OUT
                                    ---                                        ---
   EVAPOTRANSPIRATION =        1781270.01     EVAPOTRANSPIRATION =           6756.75
           STREAMFLOW =        1766533.42             STREAMFLOW =          12635.29
     GW BOUNDARY FLOW =           5791.83       GW BOUNDARY FLOW =             35.46

   INFLOWS - OUTFLOWS =        5192455.98     INFLOWS - OUTFLOWS =          13461.71
             --------                                   --------

 TOTAL STORAGE CHANGE =        5192687.04         STORAGE CHANGE =          13469.00
       --------------                             --------------
         LAND SURFACE =        3056677.02           LAND SURFACE =          -5526.40
            SOIL ZONE =        4107525.25              SOIL ZONE =          26239.31
     UNSATURATED ZONE =       -2823141.80       UNSATURATED ZONE =          -5489.99
       SATURATED ZONE =         851626.56         SATURATED ZONE =          -1753.93

 OVERALL BUDGET ERROR =           -231.06           BUDGET ERROR =             -7.29


  PERCENT DISCREPANCY =             -0.00    PERCENT DISCREPANCY =             -0.02



1
 SUMMARY VOLUMETRIC BUDGET FOR GSFLOW 
 DATE: 03 17 1991              CUMULATIVE TIME STEP:      17
 MODFLOW STRESS PERIOD      7     CURRENT TIME STEP:     168     ITERATIONS:       6

 -----------------------------------------------------------------------------------

   CUMULATIVE VOLUMES               L**3   RATES FOR THIS TIME STEP           L**3/T
   ------------------                      ------------------------

                                     IN                                         IN
                                     --                                         --
        PRECIPITATION =        9897129.71          PRECIPITATION =         157865.04
           STREAMFLOW =                               STREAMFLOW =                  
     GW BOUNDARY FLOW =             25.70       GW BOUNDARY FLOW =              0.73


                                    OUT                                        OUT
                                    ---                                        ---
   EVAPOTRANSPIRATION =        1802016.87     EVAPOTRANSPIRATION =           6135.89
           STREAMFLOW =        1856069.83             STREAMFLOW =          12822.71
     GW BOUNDARY FLOW =           6039.68       GW BOUNDARY FLOW =             35.35

   INFLOWS - OUTFLOWS =        6233029.03     INFLOWS - OUTFLOWS =         138871.82
             --------                                   --------

 TOTAL STORAGE CHANGE =        6233344.80         STORAGE CHANGE =         138879.25
       --------------                             --------------
         LAND SURFACE =        4188230.79           LAND SURFACE =         152136.56
            SOIL ZONE =        4067996.64              SOIL ZONE =          -5481.07
     UNSATURATED ZONE =       -2862395.83       UNSATURATED ZONE =          -5668.19
       SATURATED ZONE =         839513.20         SATURATED ZONE =          -2108.05

 OVERALL BUDGET ERROR =           -315.77           BUDGET ERROR =             -7.43


  PERCENT DISCREPANCY =             -0.00    PERCENT DISCREPANCY =             -0.00



1
 SUMMARY VOLUMETRIC BUDGET FOR GSFLOW 
 DATE: 03 24 1991              CUMULATIVE TIME STEP:      24
 MODFLOW STRESS PERIOD      7     CURRENT TIME STEP:     175     ITERATIONS:       5

 -----------------------------------------------------------------------------------

   CUMULATIVE VOLUMES               L**3   RATES FOR THIS TIME STEP           L**3/T
   ------------------                      ------------------------

                                     IN                                         IN
                                     --                                         --
        PRECIPITATION =        1.1673D+07          PRECIPITATION =        1230031.83
           STREAMFLOW =                               STREAMFLOW =                  
     GW BOUNDARY FLOW =             31.06       GW BOUNDARY FLOW =              0.79


                                    OUT                                        OUT
                                    ---                                        ---
   EVAPOTRANSPIRATION =        1831718.38     EVAPOTRANSPIRATION =           3479.14
           STREAMFLOW =        1947005.03             STREAMFLOW =          13107.90
     GW BOUNDARY FLOW =           6286.77       GW BOUNDARY FLOW =             35.26

   INFLOWS - OUTFLOWS =        7888132.38     INFLOWS - OUTFLOWS =        1213410.33
             --------                                   --------

 TOTAL STORAGE CHANGE =        7888554.89         STORAGE CHANGE =        1213427.25
       --------------                             --------------
         LAND SURFACE =        5933783.02           LAND SURFACE =        1227482.51
            SOIL ZONE =        4032908.14              SOIL ZONE =          -5989.62
     UNSATURATED ZONE =       -2902533.29       UNSATURATED ZONE =          -5824.27
       SATURATED ZONE =         824397.03         SATURATED ZONE =          -2241.38

 OVERALL BUDGET ERROR =           -422.52           BUDGET ERROR =            -16.92


  PERCENT DISCREPANCY =             -0.00    PERCENT DISCREPANCY =             -0.00



1
 SUMMARY VOLUMETRIC BUDGET FOR GSFLOW 
 DATE: 03 31 1991              CUMULATIVE TIME STEP:      31
 MODFLOW STRESS PERIOD      7     CURRENT TIME STEP:     182     ITERATIONS:       6

 -----------------------------------------------------------------------------------

   CUMULATIVE VOLUMES               L**3   RATES FOR THIS TIME STEP           L**3/T
   ------------------                      ------------------------

                                     IN                                         IN
                                     --                                         --
        PRECIPITATION =        1.2495D+07          PRECIPITATION =                  
           STREAMFLOW =                               STREAMFLOW =                  
     GW BOUNDARY FLOW =             36.86       GW BOUNDARY FLOW =              0.86


                                    OUT                                        OUT
                                    ---                                        ---
   EVAPOTRANSPIRATION =        1937834.84     EVAPOTRANSPIRATION =          43452.02
           STREAMFLOW =        2040555.79             STREAMFLOW =          13778.28
     GW BOUNDARY FLOW =           6533.25       GW BOUNDARY FLOW =             35.18

   INFLOWS - OUTFLOWS =        8510438.26     INFLOWS - OUTFLOWS =         -57264.63
             --------                                   --------

 TOTAL STORAGE CHANGE =        8510974.55         STORAGE CHANGE =         -57255.85
       --------------                             --------------
         LAND SURFACE =        6553217.20           LAND SURFACE =        -112248.23
            SOIL ZONE =        4092558.84              SOIL ZONE =          62625.77
     UNSATURATED ZONE =       -2942835.19       UNSATURATED ZONE =          -5012.82
       SATURATED ZONE =         808033.69         SATURATED ZONE =          -2620.57

 OVERALL BUDGET ERROR =           -536.29           BUDGET ERROR =             -8.78


  PERCENT DISCREPANCY =             -0.00    PERCENT DISCREPANCY =             -0.02



1
 SUMMARY VOLUMETRIC BUDGET FOR GSFLOW 
 DATE: 04 07 1991              CUMULATIVE TIME STEP:       7
 MODFLOW STRESS PERIOD      8     CURRENT TIME STEP:     189     ITERATIONS:       5

 -----------------------------------------------------------------------------------

   CUMULATIVE VOLUMES               L**3   RATES FOR THIS TIME STEP           L**3/T
   ------------------                      ------------------------

                                     IN                                         IN
                                     --                                         --
        PRECIPITATION =        1.3018D+07          PRECIPITATION =                  
           STREAMFLOW =                               STREAMFLOW =                  
     GW BOUNDARY FLOW =             43.08       GW BOUNDARY FLOW =              0.91


                                    OUT                                        OUT
                                    ---                                        ---
   EVAPOTRANSPIRATION =        2219969.82     EVAPOTRANSPIRATION =          13548.21
           STREAMFLOW =        2205727.03             STREAMFLOW =          29893.63
     GW BOUNDARY FLOW =           6780.47       GW BOUNDARY FLOW =             35.42

   INFLOWS - OUTFLOWS =        8585302.49     INFLOWS - OUTFLOWS =         -43476.35
             --------                                   --------

 TOTAL STORAGE CHANGE =        8585946.71         STORAGE CHANGE =         -43459.48
       --------------                             --------------
         LAND SURFACE =        5033071.34           LAND SURFACE =         -59134.98
            SOIL ZONE =        5698349.32              SOIL ZONE =          10551.63
     UNSATURATED ZONE =       -2937931.65       UNSATURATED ZONE =           6851.70
       SATURATED ZONE =         792457.69         SATURATED ZONE =          -1727.83

 OVERALL BUDGET ERROR =           -644.22           BUDGET ERROR =            -16.87


  PERCENT DISCREPANCY =             -0.00    PERCENT DISCREPANCY =             -0.04



1
 SUMMARY VOLUMETRIC BUDGET FOR GSFLOW 
 DATE: 04 14 1991              CUMULATIVE TIME STEP:      14
 MODFLOW STRESS PERIOD      8     CURRENT TIME STEP:     196     ITERATIONS:       7

 -----------------------------------------------------------------------------------

   CUMULATIVE VOLUMES               L**3   RATES FOR THIS TIME STEP           L**3/T
   ------------------                      ------------------------

                                     IN                                         IN
                                     --                                         --
        PRECIPITATION =        1.3018D+07          PRECIPITATION =                  
           STREAMFLOW =                               STREAMFLOW =                  
     GW BOUNDARY FLOW =             49.66       GW BOUNDARY FLOW =              0.96


                                    OUT                                        OUT
                                    ---                                        ---
   EVAPOTRANSPIRATION =        2389890.51     EVAPOTRANSPIRATION =          38955.66
           STREAMFLOW =        2525395.76             STREAMFLOW =          58967.75
     GW BOUNDARY FLOW =           7029.52       GW BOUNDARY FLOW =             35.69

   INFLOWS - OUTFLOWS =        8095470.60     INFLOWS - OUTFLOWS =         -97958.14
             --------                                   --------

 TOTAL STORAGE CHANGE =        8096157.49         STORAGE CHANGE =         -97955.29
       --------------                             --------------
         LAND SURFACE =        4428670.44           LAND SURFACE =        -170838.53
            SOIL ZONE =        5773503.32              SOIL ZONE =          67188.38
     UNSATURATED ZONE =       -2889774.73       UNSATURATED ZONE =           6546.70
       SATURATED ZONE =         783758.46         SATURATED ZONE =           -851.83

 OVERALL BUDGET ERROR =           -686.89           BUDGET ERROR =             -2.86


  PERCENT DISCREPANCY =             -0.01    PERCENT DISCREPANCY =             -0.00



1
 SUMMARY VOLUMETRIC BUDGET FOR GSFLOW 
 DATE: 04 21 1991              CUMULATIVE TIME STEP:      21
 MODFLOW STRESS PERIOD      8     CURRENT TIME STEP:     203     ITERATIONS:       7

 -----------------------------------------------------------------------------------

   CUMULATIVE VOLUMES               L**3   RATES FOR THIS TIME STEP           L**3/T
   ------------------                      ------------------------

                                     IN                                         IN
                                     --                                         --
        PRECIPITATION =        1.3034D+07          PRECIPITATION =                  
           STREAMFLOW =                               STREAMFLOW =                  
     GW BOUNDARY FLOW =             56.58       GW BOUNDARY FLOW =              1.01


                                    OUT                                        OUT
                                    ---                                        ---
   EVAPOTRANSPIRATION =        2621692.36     EVAPOTRANSPIRATION =          43459.74
           STREAMFLOW =        2995050.22             STREAMFLOW =          79346.11
     GW BOUNDARY FLOW =           7279.39       GW BOUNDARY FLOW =             35.78

   INFLOWS - OUTFLOWS =        7410096.70     INFLOWS - OUTFLOWS =        -122840.62
             --------                                   --------

 TOTAL STORAGE CHANGE =        7410804.89         STORAGE CHANGE =        -122838.16
       --------------                             --------------
         LAND SURFACE =        3288381.99           LAND SURFACE =        -224119.74
            SOIL ZONE =        6180487.20              SOIL ZONE =          92306.47
     UNSATURATED ZONE =       -2837464.86       UNSATURATED ZONE =           9343.39
       SATURATED ZONE =         779400.55         SATURATED ZONE =           -368.27

 OVERALL BUDGET ERROR =           -708.18           BUDGET ERROR =             -2.46


  PERCENT DISCREPANCY =             -0.01    PERCENT DISCREPANCY =             -0.00



1
 SUMMARY VOLUMETRIC BUDGET FOR GSFLOW 
 DATE: 04 28 1991              CUMULATIVE TIME STEP:      28
 MODFLOW STRESS PERIOD      8     CURRENT TIME STEP:     210     ITERATIONS:       6

 -----------------------------------------------------------------------------------

   CUMULATIVE VOLUMES               L**3   RATES FOR THIS TIME STEP           L**3/T
   ------------------                      ------------------------

                                     IN                                         IN
                                     --                                         --
        PRECIPITATION =        1.3303D+07          PRECIPITATION =                  
           STREAMFLOW =                               STREAMFLOW =                  
     GW BOUNDARY FLOW =             63.79       GW BOUNDARY FLOW =              1.05


                                    OUT                                        OUT
                                    ---                                        ---
   EVAPOTRANSPIRATION =        2868650.42     EVAPOTRANSPIRATION =          55283.23
           STREAMFLOW =        3570809.63             STREAMFLOW =          84704.09
     GW BOUNDARY FLOW =           7529.42       GW BOUNDARY FLOW =             35.68

   INFLOWS - OUTFLOWS =        6856504.84     INFLOWS - OUTFLOWS =        -140021.94
             --------                                   --------

 TOTAL STORAGE CHANGE =        6857234.88         STORAGE CHANGE =        -140019.62
       --------------                             --------------
         LAND SURFACE =        2542972.48           LAND SURFACE =        -158428.10
            SOIL ZONE =        6302891.50              SOIL ZONE =           8643.00
     UNSATURATED ZONE =       -2767227.24       UNSATURATED ZONE =           9642.01
       SATURATED ZONE =         778598.15         SATURATED ZONE =            123.46

 OVERALL BUDGET ERROR =           -730.04           BUDGET ERROR =             -2.32


  PERCENT DISCREPANCY =             -0.01    PERCENT DISCREPANCY =             -0.00



1
 SUMMARY VOLUMETRIC BUDGET FOR GSFLOW 
 DATE: 05 05 1991              CUMULATIVE TIME STEP:       5
 MODFLOW STRESS PERIOD      9     CURRENT TIME STEP:     217     ITERATIONS:      10

 -----------------------------------------------------------------------------------

   CUMULATIVE VOLUMES               L**3   RATES FOR THIS TIME STEP           L**3/T
   ------------------                      ------------------------

                                     IN                                         IN
                                     --                                         --
        PRECIPITATION =        1.3510D+07          PRECIPITATION =                  
           STREAMFLOW =                               STREAMFLOW =                  
     GW BOUNDARY FLOW =             71.31       GW BOUNDARY FLOW =              1.09


                                    OUT                                        OUT
                                    ---                                        ---
   EVAPOTRANSPIRATION =        3217719.97     EVAPOTRANSPIRATION =          84817.23
           STREAMFLOW =        4122294.52             STREAMFLOW =          84026.72
     GW BOUNDARY FLOW =           7778.11       GW BOUNDARY FLOW =             35.52

   INFLOWS - OUTFLOWS =        6161986.83     INFLOWS - OUTFLOWS =        -168878.39
             --------                                   --------

 TOTAL STORAGE CHANGE =        6162729.17         STORAGE CHANGE =        -168877.84
       --------------                             --------------
         LAND SURFACE =        1737575.89           LAND SURFACE =        -184922.33
            SOIL ZONE =        6345721.19              SOIL ZONE =           5469.93
     UNSATURATED ZONE =       -2703455.56       UNSATURATED ZONE =           8057.82
       SATURATED ZONE =         782887.65         SATURATED ZONE =           2516.74

 OVERALL BUDGET ERROR =           -742.34           BUDGET ERROR =             -0.54


  PERCENT DISCREPANCY =             -0.01    PERCENT DISCREPANCY =             -0.00



1
 SUMMARY VOLUMETRIC BUDGET FOR GSFLOW 
 DATE: 05 12 1991              CUMULATIVE TIME STEP:      12
 MODFLOW STRESS PERIOD      9     CURRENT TIME STEP:     224     ITERATIONS:       7

 -----------------------------------------------------------------------------------

   CUMULATIVE VOLUMES               L**3   RATES FOR THIS TIME STEP           L**3/T
   ------------------                      ------------------------

                                     IN                                         IN
                                     --                                         --
        PRECIPITATION =        1.4029D+07          PRECIPITATION =                  
           STREAMFLOW =                               STREAMFLOW =                  
     GW BOUNDARY FLOW =             79.10       GW BOUNDARY FLOW =              1.13


                                    OUT                                        OUT
                                    ---                                        ---
   EVAPOTRANSPIRATION =        3587648.93     EVAPOTRANSPIRATION =          62594.93
           STREAMFLOW =        4688363.73             STREAMFLOW =          91044.26
     GW BOUNDARY FLOW =           8025.95       GW BOUNDARY FLOW =             35.45

   INFLOWS - OUTFLOWS =        5745262.66     INFLOWS - OUTFLOWS =        -153673.51
             --------                                   --------

 TOTAL STORAGE CHANGE =        5746008.88         STORAGE CHANGE =        -153673.23
       --------------                             --------------
         LAND SURFACE =        1228262.74           LAND SURFACE =        -215603.20
            SOIL ZONE =        6370170.77              SOIL ZONE =          52638.93
     UNSATURATED ZONE =       -2640486.43       UNSATURATED ZONE =           8305.04
       SATURATED ZONE =         788061.79         SATURATED ZONE =            986.00

 OVERALL BUDGET ERROR =           -746.22           BUDGET ERROR =             -0.28


  PERCENT DISCREPANCY =             -0.01    PERCENT DISCREPANCY =             -0.00



1
 SUMMARY VOLUMETRIC BUDGET FOR GSFLOW 
 DATE: 05 19 1991              CUMULATIVE TIME STEP:      19
 MODFLOW STRESS PERIOD      9     CURRENT TIME STEP:     231     ITERATIONS:       7

 -----------------------------------------------------------------------------------

   CUMULATIVE VOLUMES               L**3   RATES FOR THIS TIME STEP           L**3/T
   ------------------                      ------------------------

                                     IN                                         IN
                                     --                                         --
        PRECIPITATION =        1.4365D+07          PRECIPITATION =                  
           STREAMFLOW =                               STREAMFLOW =                  
     GW BOUNDARY FLOW =             87.17       GW BOUNDARY FLOW =              1.17


                                    OUT                                        OUT
                                    ---                                        ---
   EVAPOTRANSPIRATION =        3987757.77     EVAPOTRANSPIRATION =          17977.42
           STREAMFLOW =        5212928.73             STREAMFLOW =          63190.30
     GW BOUNDARY FLOW =           8272.33       GW BOUNDARY FLOW =             35.01

   INFLOWS - OUTFLOWS =        5156506.65     INFLOWS - OUTFLOWS =         -81201.55
             --------                                   --------

 TOTAL STORAGE CHANGE =        5157251.75         STORAGE CHANGE =         -81201.98
       --------------                             --------------
         LAND SURFACE =         710055.97           LAND SURFACE =         -20899.31
            SOIL ZONE =        6238492.57              SOIL ZONE =         -67836.43
     UNSATURATED ZONE =       -2587482.04       UNSATURATED ZONE =           6388.07
       SATURATED ZONE =         796185.25         SATURATED ZONE =           1145.69

 OVERALL BUDGET ERROR =           -745.10           BUDGET ERROR =              0.44


  PERCENT DISCREPANCY =             -0.01    PERCENT DISCREPANCY =              0.00



1
 SUMMARY VOLUMETRIC BUDGET FOR GSFLOW 
 DATE: 05 26 1991              CUMULATIVE TIME STEP:      26
 MODFLOW STRESS PERIOD      9     CURRENT TIME STEP:     238     ITERATIONS:       7

 -----------------------------------------------------------------------------------

   CUMULATIVE VOLUMES               L**3   RATES FOR THIS TIME STEP           L**3/T
   ------------------                      ------------------------

                                     IN                                         IN
                                     --                                         --
        PRECIPITATION =        1.4426D+07          PRECIPITATION =                  
           STREAMFLOW =                               STREAMFLOW =                  
     GW BOUNDARY FLOW =             95.52       GW BOUNDARY FLOW =              1.21


                                    OUT                                        OUT
                                    ---                                        ---
   EVAPOTRANSPIRATION =        4635113.15     EVAPOTRANSPIRATION =          71093.69
           STREAMFLOW =        5587821.56             STREAMFLOW =          38736.61
     GW BOUNDARY FLOW =           8515.92       GW BOUNDARY FLOW =             34.54

   INFLOWS - OUTFLOWS =        4195142.50     INFLOWS - OUTFLOWS =        -109863.62
             --------                                   --------

 TOTAL STORAGE CHANGE =        4195885.11         STORAGE CHANGE =        -109863.72
       --------------                             --------------
         LAND SURFACE =         283723.71           LAND SURFACE =         -27810.11
            SOIL ZONE =        5664290.20              SOIL ZONE =         -84737.16
     UNSATURATED ZONE =       -2555705.73       UNSATURATED ZONE =           1875.78
       SATURATED ZONE =         803576.92         SATURATED ZONE =            807.76

 OVERALL BUDGET ERROR =           -742.61           BUDGET ERROR =              0.10


  PERCENT DISCREPANCY =             -0.01    PERCENT DISCREPANCY =              0.00



1
 SUMMARY VOLUMETRIC BUDGET FOR GSFLOW 
 DATE: 06 02 1991              CUMULATIVE TIME STEP:       2
 MODFLOW STRESS PERIOD     10     CURRENT TIME STEP:     245     ITERATIONS:       6

 -----------------------------------------------------------------------------------

   CUMULATIVE VOLUMES               L**3   RATES FOR THIS TIME STEP           L**3/T
   ------------------                      ------------------------

                                     IN                                         IN
                                     --                                         --
        PRECIPITATION =        1.4671D+07          PRECIPITATION =                  
           STREAMFLOW =                               STREAMFLOW =                  
     GW BOUNDARY FLOW =            103.99       GW BOUNDARY FLOW =              1.16


                                    OUT                                        OUT
                                    ---                                        ---
   EVAPOTRANSPIRATION =        5180059.82     EVAPOTRANSPIRATION =         119396.93
           STREAMFLOW =        5852353.33             STREAMFLOW =          32138.26
     GW BOUNDARY FLOW =           8757.07       GW BOUNDARY FLOW =             34.31

   INFLOWS - OUTFLOWS =        3629908.58     INFLOWS - OUTFLOWS =        -151568.34
             --------                                   --------

 TOTAL STORAGE CHANGE =        3630651.57         STORAGE CHANGE =        -151567.69
       --------------                             --------------
         LAND SURFACE =         133141.95           LAND SURFACE =         -21748.77
            SOIL ZONE =        5245256.83              SOIL ZONE =        -129315.85
     UNSATURATED ZONE =       -2554793.06       UNSATURATED ZONE =           -660.35
       SATURATED ZONE =         807045.84         SATURATED ZONE =            157.28

 OVERALL BUDGET ERROR =           -742.99           BUDGET ERROR =             -0.64


  PERCENT DISCREPANCY =             -0.01    PERCENT DISCREPANCY =             -0.00



1
 SUMMARY VOLUMETRIC BUDGET FOR GSFLOW 
 DATE: 06 09 1991              CUMULATIVE TIME STEP:       9
 MODFLOW STRESS PERIOD     10     CURRENT TIME STEP:     252     ITERATIONS:       6

 -----------------------------------------------------------------------------------

   CUMULATIVE VOLUMES               L**3   RATES FOR THIS TIME STEP           L**3/T
   ------------------                      ------------------------

                                     IN                                         IN
                                     --                                         --
        PRECIPITATION =        1.4671D+07          PRECIPITATION =                  
           STREAMFLOW =                               STREAMFLOW =                  
     GW BOUNDARY FLOW =            111.59       GW BOUNDARY FLOW =              1.03


                                    OUT                                        OUT
                                    ---                                        ---
   EVAPOTRANSPIRATION =        5896469.54     EVAPOTRANSPIRATION =         166531.68
           STREAMFLOW =        6034633.92             STREAMFLOW =          21403.40
     GW BOUNDARY FLOW =           8996.01       GW BOUNDARY FLOW =             34.00

   INFLOWS - OUTFLOWS =        2730986.92     INFLOWS - OUTFLOWS =        -187968.05
             --------                                   --------

 TOTAL STORAGE CHANGE =        2731751.85         STORAGE CHANGE =        -187963.25
       --------------                             --------------
         LAND SURFACE =          42792.54           LAND SURFACE =         -14518.27
            SOIL ZONE =        4460426.91              SOIL ZONE =        -168099.25
     UNSATURATED ZONE =       -2575740.86       UNSATURATED ZONE =          -4566.39
       SATURATED ZONE =         804273.25         SATURATED ZONE =           -779.34

 OVERALL BUDGET ERROR =           -764.92           BUDGET ERROR =             -4.80


  PERCENT DISCREPANCY =             -0.01    PERCENT DISCREPANCY =             -0.00



1
 SUMMARY VOLUMETRIC BUDGET FOR GSFLOW 
 DATE: 06 16 1991              CUMULATIVE TIME STEP:      16
 MODFLOW STRESS PERIOD     10     CURRENT TIME STEP:     259     ITERATIONS:       6

 -----------------------------------------------------------------------------------

   CUMULATIVE VOLUMES               L**3   RATES FOR THIS TIME STEP           L**3/T
   ------------------                      ------------------------

                                     IN                                         IN
                                     --                                         --
        PRECIPITATION =        1.4671D+07          PRECIPITATION =                  
           STREAMFLOW =                               STREAMFLOW =                  
     GW BOUNDARY FLOW =            118.42       GW BOUNDARY FLOW =              0.94


                                    OUT                                        OUT
                                    ---                                        ---
   EVAPOTRANSPIRATION =        6840729.28     EVAPOTRANSPIRATION =         103648.57
           STREAMFLOW =        6160757.96             STREAMFLOW =          17177.15
     GW BOUNDARY FLOW =           9233.03       GW BOUNDARY FLOW =             33.79

   INFLOWS - OUTFLOWS =        1660372.94     INFLOWS - OUTFLOWS =        -120858.57
             --------                                   --------

 TOTAL STORAGE CHANGE =        1661177.04         STORAGE CHANGE =        -120850.79
       --------------                             --------------
         LAND SURFACE =           5456.07           LAND SURFACE =          -1579.06
            SOIL ZONE =        3485180.26              SOIL ZONE =        -109337.61
     UNSATURATED ZONE =       -2623582.90       UNSATURATED ZONE =          -7696.61
       SATURATED ZONE =         794123.61         SATURATED ZONE =          -2237.51

 OVERALL BUDGET ERROR =           -804.09           BUDGET ERROR =             -7.78


  PERCENT DISCREPANCY =             -0.01    PERCENT DISCREPANCY =             -0.01



1
 SUMMARY VOLUMETRIC BUDGET FOR GSFLOW 
 DATE: 06 23 1991              CUMULATIVE TIME STEP:      23
 MODFLOW STRESS PERIOD     10     CURRENT TIME STEP:     266     ITERATIONS:      15

 -----------------------------------------------------------------------------------

   CUMULATIVE VOLUMES               L**3   RATES FOR THIS TIME STEP           L**3/T
   ------------------                      ------------------------

                                     IN                                         IN
                                     --                                         --
        PRECIPITATION =        1.4671D+07          PRECIPITATION =                  
           STREAMFLOW =                               STREAMFLOW =                  
     GW BOUNDARY FLOW =            124.83       GW BOUNDARY FLOW =              0.90


                                    OUT                                        OUT
                                    ---                                        ---
   EVAPOTRANSPIRATION =        7288022.03     EVAPOTRANSPIRATION =          31745.06
           STREAMFLOW =        6273490.78             STREAMFLOW =          15748.25
     GW BOUNDARY FLOW =           9468.94       GW BOUNDARY FLOW =             33.64

   INFLOWS - OUTFLOWS =        1100117.88     INFLOWS - OUTFLOWS =         -47526.05
             --------                                   --------

 TOTAL STORAGE CHANGE =        1100956.40         STORAGE CHANGE =         -47522.61
       --------------                             --------------
         LAND SURFACE =           1456.34           LAND SURFACE =           -205.23
            SOIL ZONE =        3007509.49              SOIL ZONE =         -35709.72
     UNSATURATED ZONE =       -2680093.97       UNSATURATED ZONE =          -8142.91
       SATURATED ZONE =         772084.55         SATURATED ZONE =          -3464.75

 OVERALL BUDGET ERROR =           -838.53           BUDGET ERROR =             -3.43


  PERCENT DISCREPANCY =             -0.01    PERCENT DISCREPANCY =             -0.01



1
 SUMMARY VOLUMETRIC BUDGET FOR GSFLOW 
 DATE: 06 30 1991              CUMULATIVE TIME STEP:      30
 MODFLOW STRESS PERIOD     10     CURRENT TIME STEP:     273     ITERATIONS:       5

 -----------------------------------------------------------------------------------

   CUMULATIVE VOLUMES               L**3   RATES FOR THIS TIME STEP           L**3/T
   ------------------                      ------------------------

                                     IN                                         IN
[...]
                                    ---                                        ---
   EVAPOTRANSPIRATION =        7.1608D+07     EVAPOTRANSPIRATION =          80539.43
           STREAMFLOW =        7.0538D+07             STREAMFLOW =          12344.05
     GW BOUNDARY FLOW =          51927.08       GW BOUNDARY FLOW =             25.59

   INFLOWS - OUTFLOWS =       -8684824.03     INFLOWS - OUTFLOWS =         -92906.23
             --------                                   --------

 TOTAL STORAGE CHANGE =       -8678684.19         STORAGE CHANGE =         -92908.25
       --------------                             --------------
         LAND SURFACE =         396765.16           LAND SURFACE =         -19619.57
            SOIL ZONE =        2508470.42              SOIL ZONE =         -62290.49
     UNSATURATED ZONE =         657780.58       UNSATURATED ZONE =          -8150.26
       SATURATED ZONE =       -1.2242D+07         SATURATED ZONE =          -2847.93

 OVERALL BUDGET ERROR =          -6139.84           BUDGET ERROR =              2.02


  PERCENT DISCREPANCY =             -0.00    PERCENT DISCREPANCY =              0.00



1
 SUMMARY VOLUMETRIC BUDGET FOR GSFLOW 
 DATE: 09 03 1995              CUMULATIVE TIME STEP:       3
 MODFLOW STRESS PERIOD     61     CURRENT TIME STEP:    1799     ITERATIONS:       7

 -----------------------------------------------------------------------------------

   CUMULATIVE VOLUMES               L**3   RATES FOR THIS TIME STEP           L**3/T
   ------------------                      ------------------------

                                     IN                                         IN
                                     --                                         --
        PRECIPITATION =        1.3351D+08          PRECIPITATION =                  
           STREAMFLOW =                               STREAMFLOW =                  
     GW BOUNDARY FLOW =           4909.55       GW BOUNDARY FLOW =              2.97


                                    OUT                                        OUT
                                    ---                                        ---
   EVAPOTRANSPIRATION =        7.2155D+07     EVAPOTRANSPIRATION =          73739.50
           STREAMFLOW =        7.0626D+07             STREAMFLOW =          12901.18
     GW BOUNDARY FLOW =          52106.09       GW BOUNDARY FLOW =             25.56

   INFLOWS - OUTFLOWS =       -9320088.36     INFLOWS - OUTFLOWS =         -86663.28
             --------                                   --------

 TOTAL STORAGE CHANGE =       -9313965.34         STORAGE CHANGE =         -86672.43
       --------------                             --------------
         LAND SURFACE =         275471.38           LAND SURFACE =         -15477.21
            SOIL ZONE =        2083081.74              SOIL ZONE =         -57304.28
     UNSATURATED ZONE =         593499.20       UNSATURATED ZONE =          -9156.61
       SATURATED ZONE =       -1.2266D+07         SATURATED ZONE =          -4734.33

 OVERALL BUDGET ERROR =          -6123.02           BUDGET ERROR =              9.15


  PERCENT DISCREPANCY =             -0.00    PERCENT DISCREPANCY =              0.01



1
 SUMMARY VOLUMETRIC BUDGET FOR GSFLOW 
 DATE: 09 10 1995              CUMULATIVE TIME STEP:      10
 MODFLOW STRESS PERIOD     61     CURRENT TIME STEP:    1806     ITERATIONS:       6

 -----------------------------------------------------------------------------------

   CUMULATIVE VOLUMES               L**3   RATES FOR THIS TIME STEP           L**3/T
   ------------------                      ------------------------

                                     IN                                         IN
                                     --                                         --
        PRECIPITATION =        1.3351D+08          PRECIPITATION =                  
           STREAMFLOW =                               STREAMFLOW =                  
     GW BOUNDARY FLOW =           4930.82       GW BOUNDARY FLOW =              3.09


                                    OUT                                        OUT
                                    ---                                        ---
   EVAPOTRANSPIRATION =        7.2572D+07     EVAPOTRANSPIRATION =          55711.71
           STREAMFLOW =        7.0713D+07             STREAMFLOW =          12175.89
     GW BOUNDARY FLOW =          52284.81       GW BOUNDARY FLOW =             25.51

   INFLOWS - OUTFLOWS =       -9823648.92     INFLOWS - OUTFLOWS =         -67910.02
             --------                                   --------

 TOTAL STORAGE CHANGE =       -9817575.52         STORAGE CHANGE =         -67924.48
       --------------                             --------------
         LAND SURFACE =         195534.25           LAND SURFACE =          -9902.88
            SOIL ZONE =        1757291.59              SOIL ZONE =         -43636.99
     UNSATURATED ZONE =         530407.31       UNSATURATED ZONE =          -8844.30
       SATURATED ZONE =       -1.2301D+07         SATURATED ZONE =          -5540.32

 OVERALL BUDGET ERROR =          -6073.40           BUDGET ERROR =             14.46


  PERCENT DISCREPANCY =             -0.00    PERCENT DISCREPANCY =              0.02



1
 SUMMARY VOLUMETRIC BUDGET FOR GSFLOW 
 DATE: 09 17 1995              CUMULATIVE TIME STEP:      17
 MODFLOW STRESS PERIOD     61     CURRENT TIME STEP:    1813     ITERATIONS:       7

 -----------------------------------------------------------------------------------

   CUMULATIVE VOLUMES               L**3   RATES FOR THIS TIME STEP           L**3/T
   ------------------                      ------------------------

                                     IN                                         IN
                                     --                                         --
        PRECIPITATION =        1.3351D+08          PRECIPITATION =                  
           STREAMFLOW =                               STREAMFLOW =                  
     GW BOUNDARY FLOW =           4952.90       GW BOUNDARY FLOW =              3.20


                                    OUT                                        OUT
                                    ---                                        ---
   EVAPOTRANSPIRATION =        7.3028D+07     EVAPOTRANSPIRATION =          53005.05
           STREAMFLOW =        7.0794D+07             STREAMFLOW =          11350.76
     GW BOUNDARY FLOW =          52463.08       GW BOUNDARY FLOW =             25.44

   INFLOWS - OUTFLOWS =       -1.0361D+07     INFLOWS - OUTFLOWS =         -64378.05
             --------                                   --------

 TOTAL STORAGE CHANGE =       -1.0355D+07         STORAGE CHANGE =         -64383.82
       --------------                             --------------
         LAND SURFACE =         125688.76           LAND SURFACE =          -7368.86
            SOIL ZONE =        1403582.90              SOIL ZONE =         -41279.70
     UNSATURATED ZONE =         468454.08       UNSATURATED ZONE =          -8797.43
       SATURATED ZONE =       -1.2353D+07         SATURATED ZONE =          -6937.83

 OVERALL BUDGET ERROR =          -6026.63           BUDGET ERROR =              5.77


  PERCENT DISCREPANCY =             -0.00    PERCENT DISCREPANCY =              0.01



1
 SUMMARY VOLUMETRIC BUDGET FOR GSFLOW 
 DATE: 09 24 1995              CUMULATIVE TIME STEP:      24
 MODFLOW STRESS PERIOD     61     CURRENT TIME STEP:    1820     ITERATIONS:       6

 -----------------------------------------------------------------------------------

   CUMULATIVE VOLUMES               L**3   RATES FOR THIS TIME STEP           L**3/T
   ------------------                      ------------------------

                                     IN                                         IN
                                     --                                         --
        PRECIPITATION =        1.3351D+08          PRECIPITATION =                  
           STREAMFLOW =                               STREAMFLOW =                  
     GW BOUNDARY FLOW =           4975.76       GW BOUNDARY FLOW =              3.31


                                    OUT                                        OUT
                                    ---                                        ---
   EVAPOTRANSPIRATION =        7.3360D+07     EVAPOTRANSPIRATION =          34234.06
           STREAMFLOW =        7.0872D+07             STREAMFLOW =          11057.18
     GW BOUNDARY FLOW =          52640.97       GW BOUNDARY FLOW =             25.40

   INFLOWS - OUTFLOWS =       -1.0771D+07     INFLOWS - OUTFLOWS =         -45313.33
             --------                                   --------

 TOTAL STORAGE CHANGE =       -1.0765D+07         STORAGE CHANGE =         -45322.64
       --------------                             --------------
         LAND SURFACE =          83575.75           LAND SURFACE =          -4151.84
            SOIL ZONE =        1147059.49              SOIL ZONE =         -26174.26
     UNSATURATED ZONE =         407162.30       UNSATURATED ZONE =          -8746.45
       SATURATED ZONE =       -1.2403D+07         SATURATED ZONE =          -6250.09

 OVERALL BUDGET ERROR =          -5976.87           BUDGET ERROR =              9.32


  PERCENT DISCREPANCY =             -0.00    PERCENT DISCREPANCY =              0.02



1
 SUMMARY VOLUMETRIC BUDGET FOR GSFLOW 
 DATE: 10 01 1995              CUMULATIVE TIME STEP:       1
 MODFLOW STRESS PERIOD     62     CURRENT TIME STEP:    1827     ITERATIONS:       6

 -----------------------------------------------------------------------------------

   CUMULATIVE VOLUMES               L**3   RATES FOR THIS TIME STEP           L**3/T
   ------------------                      ------------------------

                                     IN                                         IN
                                     --                                         --
        PRECIPITATION =        1.3351D+08          PRECIPITATION =                  
           STREAMFLOW =                               STREAMFLOW =                  
     GW BOUNDARY FLOW =           4999.34       GW BOUNDARY FLOW =              3.41


                                    OUT                                        OUT
                                    ---                                        ---
   EVAPOTRANSPIRATION =        7.3496D+07     EVAPOTRANSPIRATION =          20241.95
           STREAMFLOW =        7.0950D+07             STREAMFLOW =          11082.03
     GW BOUNDARY FLOW =          52818.66       GW BOUNDARY FLOW =             25.37

   INFLOWS - OUTFLOWS =       -1.0985D+07     INFLOWS - OUTFLOWS =         -31345.94
             --------                                   --------

 TOTAL STORAGE CHANGE =       -1.0979D+07         STORAGE CHANGE =         -31352.83
       --------------                             --------------
         LAND SURFACE =          66318.88           LAND SURFACE =          -2095.26
            SOIL ZONE =        1045448.99              SOIL ZONE =         -15454.13
     UNSATURATED ZONE =         347316.37       UNSATURATED ZONE =          -8361.57
       SATURATED ZONE =       -1.2438D+07         SATURATED ZONE =          -5441.87

 OVERALL BUDGET ERROR =          -5921.08           BUDGET ERROR =              6.90


  PERCENT DISCREPANCY =             -0.00    PERCENT DISCREPANCY =              0.02



1
 SUMMARY VOLUMETRIC BUDGET FOR GSFLOW 
 DATE: 10 08 1995              CUMULATIVE TIME STEP:       8
 MODFLOW STRESS PERIOD     62     CURRENT TIME STEP:    1834     ITERATIONS:       6

 -----------------------------------------------------------------------------------

   CUMULATIVE VOLUMES               L**3   RATES FOR THIS TIME STEP           L**3/T
   ------------------                      ------------------------

                                     IN                                         IN
                                     --                                         --
        PRECIPITATION =        1.3351D+08          PRECIPITATION =                  
           STREAMFLOW =                               STREAMFLOW =                  
     GW BOUNDARY FLOW =           5023.60       GW BOUNDARY FLOW =              3.51


                                    OUT                                        OUT
                                    ---                                        ---
   EVAPOTRANSPIRATION =        7.3652D+07     EVAPOTRANSPIRATION =          19475.42
           STREAMFLOW =        7.1026D+07             STREAMFLOW =          10844.00
     GW BOUNDARY FLOW =          52996.11       GW BOUNDARY FLOW =             25.34

   INFLOWS - OUTFLOWS =       -1.1218D+07     INFLOWS - OUTFLOWS =         -30341.25
             --------                                   --------

 TOTAL STORAGE CHANGE =       -1.1212D+07         STORAGE CHANGE =         -30346.58
       --------------                             --------------
         LAND SURFACE =          51558.66           LAND SURFACE =          -1742.43
            SOIL ZONE =         926751.79              SOIL ZONE =         -14626.86
     UNSATURATED ZONE =         290550.10       UNSATURATED ZONE =          -8028.86
       SATURATED ZONE =       -1.2481D+07         SATURATED ZONE =          -5948.43

 OVERALL BUDGET ERROR =          -5880.25           BUDGET ERROR =              5.33


  PERCENT DISCREPANCY =             -0.00    PERCENT DISCREPANCY =              0.02



1
 SUMMARY VOLUMETRIC BUDGET FOR GSFLOW 
 DATE: 10 15 1995              CUMULATIVE TIME STEP:      15
 MODFLOW STRESS PERIOD     62     CURRENT TIME STEP:    1841     ITERATIONS:       6

 -----------------------------------------------------------------------------------

   CUMULATIVE VOLUMES               L**3   RATES FOR THIS TIME STEP           L**3/T
   ------------------                      ------------------------

                                     IN                                         IN
                                     --                                         --
        PRECIPITATION =        1.3351D+08          PRECIPITATION =                  
           STREAMFLOW =                               STREAMFLOW =                  
     GW BOUNDARY FLOW =           5048.50       GW BOUNDARY FLOW =              3.60


                                    OUT                                        OUT
                                    ---                                        ---
   EVAPOTRANSPIRATION =        7.3804D+07     EVAPOTRANSPIRATION =          24105.06
           STREAMFLOW =        7.1101D+07             STREAMFLOW =          10512.26
     GW BOUNDARY FLOW =          53173.35       GW BOUNDARY FLOW =             25.31

   INFLOWS - OUTFLOWS =       -1.1444D+07     INFLOWS - OUTFLOWS =         -34639.03
             --------                                   --------

 TOTAL STORAGE CHANGE =       -1.1438D+07         STORAGE CHANGE =         -34643.08
       --------------                             --------------
         LAND SURFACE =          38802.94           LAND SURFACE =          -1819.31
            SOIL ZONE =         813832.71              SOIL ZONE =         -17815.60
     UNSATURATED ZONE =         236299.20       UNSATURATED ZONE =          -7599.24
       SATURATED ZONE =       -1.2527D+07         SATURATED ZONE =          -7408.94

 OVERALL BUDGET ERROR =          -5853.56           BUDGET ERROR =              4.05


  PERCENT DISCREPANCY =             -0.00    PERCENT DISCREPANCY =              0.01



1
 SUMMARY VOLUMETRIC BUDGET FOR GSFLOW 
 DATE: 10 22 1995              CUMULATIVE TIME STEP:      22
 MODFLOW STRESS PERIOD     62     CURRENT TIME STEP:    1848     ITERATIONS:       6

 -----------------------------------------------------------------------------------

   CUMULATIVE VOLUMES               L**3   RATES FOR THIS TIME STEP           L**3/T
   ------------------                      ------------------------

                                     IN                                         IN
                                     --                                         --
        PRECIPITATION =        1.3351D+08          PRECIPITATION =                  
           STREAMFLOW =                               STREAMFLOW =                  
     GW BOUNDARY FLOW =           5074.01       GW BOUNDARY FLOW =              3.68


                                    OUT                                        OUT
                                    ---                                        ---
   EVAPOTRANSPIRATION =        7.3939D+07     EVAPOTRANSPIRATION =           5696.38
           STREAMFLOW =        7.1174D+07             STREAMFLOW =          10744.35
     GW BOUNDARY FLOW =          53350.38       GW BOUNDARY FLOW =             25.29

   INFLOWS - OUTFLOWS =       -1.1653D+07     INFLOWS - OUTFLOWS =         -16462.35
             --------                                   --------

 TOTAL STORAGE CHANGE =       -1.1647D+07         STORAGE CHANGE =         -16465.77
       --------------                             --------------
         LAND SURFACE =          28999.83           LAND SURFACE =           -464.23
            SOIL ZONE =         716166.58              SOIL ZONE =          -4036.13
     UNSATURATED ZONE =         183527.10       UNSATURATED ZONE =          -7521.99
       SATURATED ZONE =       -1.2576D+07         SATURATED ZONE =          -4443.43

 OVERALL BUDGET ERROR =          -5814.60           BUDGET ERROR =              3.43


  PERCENT DISCREPANCY =             -0.00    PERCENT DISCREPANCY =              0.02



1
 SUMMARY VOLUMETRIC BUDGET FOR GSFLOW 
 DATE: 10 29 1995              CUMULATIVE TIME STEP:      29
 MODFLOW STRESS PERIOD     62     CURRENT TIME STEP:    1855     ITERATIONS:       5

 -----------------------------------------------------------------------------------

   CUMULATIVE VOLUMES               L**3   RATES FOR THIS TIME STEP           L**3/T
   ------------------                      ------------------------

                                     IN                                         IN
                                     --                                         --
        PRECIPITATION =        1.3351D+08          PRECIPITATION =                  
           STREAMFLOW =                               STREAMFLOW =                  
     GW BOUNDARY FLOW =           5100.10       GW BOUNDARY FLOW =              3.76


                                    OUT                                        OUT
                                    ---                                        ---
   EVAPOTRANSPIRATION =        7.4020D+07     EVAPOTRANSPIRATION =          14181.80
           STREAMFLOW =        7.1248D+07             STREAMFLOW =          10363.03
     GW BOUNDARY FLOW =          53527.04       GW BOUNDARY FLOW =             25.17

   INFLOWS - OUTFLOWS =       -1.1808D+07     INFLOWS - OUTFLOWS =         -24566.25
             --------                                   --------

 TOTAL STORAGE CHANGE =       -1.1802D+07         STORAGE CHANGE =         -24570.99
       --------------                             --------------
         LAND SURFACE =          24723.88           LAND SURFACE =           -960.36
            SOIL ZONE =         658407.03              SOIL ZONE =          -9708.54
     UNSATURATED ZONE =         131663.13       UNSATURATED ZONE =          -7192.28
       SATURATED ZONE =       -1.2617D+07         SATURATED ZONE =          -6709.81

 OVERALL BUDGET ERROR =          -5775.17           BUDGET ERROR =              4.74


  PERCENT DISCREPANCY =             -0.00    PERCENT DISCREPANCY =              0.02



